# BAS6 package for MODFLOW-2005 generated by Flopy 3.9.2
FREE
INTERNAL               1    (10I10) -1 #ibound layer 1                
        -1         1         1         1         1         1         1         1         1        -1
        -1         1         1         1         1         1         1         1         1        -1
        -1         1         1         1         1         1         1         1         1        -1
        -1         1         1         1         1         1         1         1         1        -1
        -1         1         1         1         1         1         1         1         1        -1
        -1         1         1         1         1         1         1         1         1        -1
        -1         1         1         1         1         1         1         1         1        -1
        -1         1         1         1         1         1         1         1         1        -1
        -1         1         1         1         1         1         1         1         1        -1
        -1         1         1         1         1         1         1         1         1        -1
INTERNAL               1    (10I10) -1 #ibound layer 2                
        -1         1         1         1         1         1         1         1         1        -1
        -1         1         1         1         1         1         1         1         1        -1
        -1         1         1         1         1         1         1         1         1        -1
        -1         1         1         1         1         1         1         1         1        -1
        -1         1         1         1         1         1         1         1         1        -1
        -1         1         1         1         1         1         1         1         1        -1
        -1         1         1         1         1         1         1         1         1        -1
        -1         1         1         1         1         1         1         1         1        -1
        -1         1         1         1         1         1         1         1         1        -1
        -1         1         1         1         1         1         1         1         1        -1
INTERNAL               1    (10I10) -1 #ibound layer 3                
        -1         1         1         1         1         1         1         1         1        -1
        -1         1         1         1         1         1         1         1         1        -1
        -1         1         1         1         1         1         1         1         1        -1
        -1         1         1         1         1         1         1         1         1        -1
        -1         1         1         1         1         1         1         1         1        -1
        -1         1         1         1         1         1         1         1         1        -1
        -1         1         1         1         1         1         1         1         1        -1
        -1         1         1         1         1         1         1         1         1        -1
        -1         1         1         1         1         1         1         1         1        -1
        -1         1         1         1         1         1         1         1         1        -1
   -999.99
INTERNAL               1  (10E15.6) -1 #strt layer 1                  
   2.900000E+01   3.000000E+01   3.000000E+01   3.000000E+01   3.000000E+01   3.000000E+01   3.000000E+01   3.000000E+01   3.000000E+01   2.850000E+01
   2.900000E+01   3.000000E+01   3.000000E+01   3.000000E+01   3.000000E+01   3.000000E+01   3.000000E+01   3.000000E+01   3.000000E+01   2.850000E+01
   2.900000E+01   3.000000E+01   3.000000E+01   3.000000E+01   3.000000E+01   3.000000E+01   3.000000E+01   3.000000E+01   3.000000E+01   2.850000E+01
   2.900000E+01   3.000000E+01   3.000000E+01   3.000000E+01   3.000000E+01   3.000000E+01   3.000000E+01   3.000000E+01   3.000000E+01   2.850000E+01
   2.900000E+01   3.000000E+01   3.000000E+01   3.000000E+01   3.000000E+01   3.000000E+01   3.000000E+01   3.000000E+01   3.000000E+01   2.850000E+01
   2.900000E+01   3.000000E+01   3.000000E+01   3.000000E+01   3.000000E+01   3.000000E+01   3.000000E+01   3.000000E+01   3.000000E+01   2.850000E+01
   2.900000E+01   3.000000E+01   3.000000E+01   3.000000E+01   3.000000E+01   3.000000E+01   3.000000E+01   3.000000E+01   3.000000E+01   2.850000E+01
   2.900000E+01   3.000000E+01   3.000000E+01   3.000000E+01   3.000000E+01   3.000000E+01   3.000000E+01   3.000000E+01   3.000000E+01   2.850000E+01
   2.900000E+01   3.000000E+01   3.000000E+01   3.000000E+01   3.000000E+01   3.000000E+01   3.000000E+01   3.000000E+01   3.000000E+01   2.850000E+01
   2.900000E+01   3.000000E+01   3.000000E+01   3.000000E+01   3.000000E+01   3.000000E+01   3.000000E+01   3.000000E+01   3.000000E+01   2.850000E+01
INTERNAL               1  (10E15.6) -1 #strt layer 2                  
   2.900000E+01   3.000000E+01   3.000000E+01   3.000000E+01   3.000000E+01   3.000000E+01   3.000000E+01   3.000000E+01   3.000000E+01   2.850000E+01
   2.900000E+01   3.000000E+01   3.000000E+01   3.000000E+01   3.000000E+01   3.000000E+01   3.000000E+01   3.000000E+01   3.000000E+01   2.850000E+01
   2.900000E+01   3.000000E+01   3.000000E+01   3.000000E+01   3.000000E+01   3.000000E+01   3.000000E+01   3.000000E+01   3.000000E+01   2.850000E+01
   2.900000E+01   3.000000E+01   3.000000E+01   3.000000E+01   3.000000E+01   3.000000E+01   3.000000E+01   3.000000E+01   3.000000E+01   2.850000E+01
   2.900000E+01   3.000000E+01   3.000000E+01   3.000000E+01   3.000000E+01   3.000000E+01   3.000000E+01   3.000000E+01   3.000000E+01   2.850000E+01
   2.900000E+01   3.000000E+01   3.000000E+01   3.000000E+01   3.000000E+01   3.000000E+01   3.000000E+01   3.000000E+01   3.000000E+01   2.850000E+01
   2.900000E+01   3.000000E+01   3.000000E+01   3.000000E+01   3.000000E+01   3.000000E+01   3.000000E+01   3.000000E+01   3.000000E+01   2.850000E+01
   2.900000E+01   3.000000E+01   3.000000E+01   3.000000E+01   3.000000E+01   3.000000E+01   3.000000E+01   3.000000E+01   3.000000E+01   2.850000E+01
   2.900000E+01   3.000000E+01   3.000000E+01   3.000000E+01   3.000000E+01   3.000000E+01   3.000000E+01   3.000000E+01   3.000000E+01   2.850000E+01
   2.900000E+01   3.000000E+01   3.000000E+01   3.000000E+01   3.000000E+01   3.000000E+01   3.000000E+01   3.000000E+01   3.000000E+01   2.850000E+01
INTERNAL               1  (10E15.6) -1 #strt layer 3                  
   2.900000E+01   3.000000E+01   3.000000E+01   3.000000E+01   3.000000E+01   3.000000E+01   3.000000E+01   3.000000E+01   3.000000E+01   2.850000E+01
   2.900000E+01   3.000000E+01   3.000000E+01   3.000000E+01   3.000000E+01   3.000000E+01   3.000000E+01   3.000000E+01   3.000000E+01   2.850000E+01
   2.900000E+01   3.000000E+01   3.000000E+01   3.000000E+01   3.000000E+01   3.000000E+01   3.000000E+01   3.000000E+01   3.000000E+01   2.850000E+01
   2.900000E+01   3.000000E+01   3.000000E+01   3.000000E+01   3.000000E+01   3.000000E+01   3.000000E+01   3.000000E+01   3.000000E+01   2.850000E+01
   2.900000E+01   3.000000E+01   3.000000E+01   3.000000E+01   3.000000E+01   3.000000E+01   3.000000E+01   3.000000E+01   3.000000E+01   2.850000E+01
   2.900000E+01   3.000000E+01   3.000000E+01   3.000000E+01   3.000000E+01   3.000000E+01   3.000000E+01   3.000000E+01   3.000000E+01   2.850000E+01
   2.900000E+01   3.000000E+01   3.000000E+01   3.000000E+01   3.000000E+01   3.000000E+01   3.000000E+01   3.000000E+01   3.000000E+01   2.850000E+01
   2.900000E+01   3.000000E+01   3.000000E+01   3.000000E+01   3.000000E+01   3.000000E+01   3.000000E+01   3.000000E+01   3.000000E+01   2.850000E+01
   2.900000E+01   3.000000E+01   3.000000E+01   3.000000E+01   3.000000E+01   3.000000E+01   3.000000E+01   3.000000E+01   3.000000E+01   2.850000E+01
   2.900000E+01   3.000000E+01   3.000000E+01   3.000000E+01   3.000000E+01   3.000000E+01   3.000000E+01   3.000000E+01   3.000000E+01   2.850000E+01
