# WEL package for MODFLOW-2005 generated by Flopy 3.9.2
         2         0 
         2         0 # stress period 1
         1         3         4          -900.0
         3         7         8          -650.0
