# LPF package for MODFLOW-2005 generated by Flopy 3.9.2
         0      -888         0  
         0         0         0
         0         0         0
  -1.000000E+00  -1.000000E+00  -1.000000E+00
         1         1         1
         0         0         0
INTERNAL               1  (10E15.6) -1 #hk layer 1                    
   6.256561E+00   6.154114E+00   6.807152E+00   6.548073E+00   6.413733E+00   7.211025E+00   6.650527E+00   5.077440E+00   4.285899E+00   3.564210E+00
   7.701963E+00   7.253569E+00   7.443563E+00   6.940530E+00   7.497355E+00   8.518903E+00   8.046087E+00   7.251912E+00   5.258470E+00   3.699232E+00
   8.901474E+00   9.195129E+00   8.676062E+00   8.254171E+00   8.908392E+00   9.766810E+00   8.891502E+00   7.846245E+00   5.082414E+00   3.822572E+00
   8.496400E+00   9.612805E+00   9.966002E+00   1.009607E+01   1.045092E+01   1.046509E+01   1.008066E+01   7.410337E+00   4.967978E+00   3.502809E+00
   7.189009E+00   1.070701E+01   1.133936E+01   1.345048E+01   1.274746E+01   1.096567E+01   7.815420E+00   5.728445E+00   4.315193E+00   3.146139E+00
   6.741195E+00   9.398754E+00   1.145375E+01   1.176333E+01   1.064646E+01   8.460873E+00   6.999526E+00   4.412986E+00   3.217688E+00   2.564103E+00
   6.263606E+00   7.922648E+00   1.026348E+01   8.951687E+00   8.026558E+00   6.509738E+00   4.642647E+00   2.883149E+00   2.266307E+00   1.983754E+00
   5.418999E+00   7.349919E+00   8.053166E+00   7.548616E+00   5.181359E+00   4.166024E+00   2.942802E+00   2.100750E+00   1.812375E+00   1.810787E+00
   5.454366E+00   6.951598E+00   6.738183E+00   5.597775E+00   4.189841E+00   2.976990E+00   2.335799E+00   1.992092E+00   1.801935E+00   1.869822E+00
   5.197509E+00   6.149024E+00   5.494591E+00   4.976855E+00   3.539775E+00   2.808326E+00   2.360499E+00   2.066061E+00   1.944771E+00   2.119104E+00
CONSTANT    1.000000E+00                           #hani layer 1                  
CONSTANT    1.000000E+00                           #vani1                         
INTERNAL               1  (10E15.6) -1 #hk layer 2                    
   3.247496E+00   3.391494E+00   3.325381E+00   3.437747E+00   5.118572E+00   7.590416E+00   8.301786E+00   6.752067E+00   4.367024E+00   3.294275E+00
   3.685317E+00   3.603843E+00   3.059942E+00   3.292908E+00   5.506360E+00   1.003582E+01   1.077733E+01   7.088285E+00   5.204970E+00   3.112812E+00
   4.793358E+00   4.591593E+00   4.135062E+00   4.593418E+00   6.965026E+00   1.130780E+01   1.091451E+01   7.409183E+00   4.596166E+00   3.188752E+00
   6.376406E+00   6.791734E+00   6.575478E+00   7.113931E+00   9.521968E+00   1.165055E+01   1.004170E+01   5.680760E+00   4.274695E+00   3.291851E+00
   7.828466E+00   9.495131E+00   9.107150E+00   8.979808E+00   1.106644E+01   9.296690E+00   6.713611E+00   5.515812E+00   3.978601E+00   3.330522E+00
   8.997680E+00   1.022186E+01   1.072975E+01   1.063243E+01   9.147760E+00   7.225449E+00   6.053006E+00   5.104414E+00   4.074502E+00   3.581450E+00
   8.448162E+00   1.074702E+01   1.240383E+01   1.078944E+01   7.599972E+00   6.339550E+00   5.454116E+00   4.849263E+00   4.146832E+00   3.255679E+00
   8.188352E+00   1.187741E+01   1.408249E+01   1.090740E+01   6.611050E+00   5.405041E+00   4.611677E+00   4.295687E+00   3.410085E+00   2.651177E+00
   8.944433E+00   1.485172E+01   1.443828E+01   9.969593E+00   6.046643E+00   4.860184E+00   3.827714E+00   3.319911E+00   2.721719E+00   2.248553E+00
   9.100603E+00   1.205616E+01   1.504480E+01   9.626548E+00   5.766896E+00   4.212454E+00   3.394766E+00   2.731289E+00   2.321350E+00   2.096352E+00
CONSTANT    1.000000E+00                           #hani layer 2                  
CONSTANT    1.000000E+00                           #vani2                         
INTERNAL               1  (10E15.6) -1 #hk layer 3                    
   3.588419E+00   3.574082E+00   3.293192E+00   3.171060E+00   3.662468E+00   4.473280E+00   5.202392E+00   5.341527E+00   5.300871E+00   5.347247E+00
   3.419592E+00   3.297132E+00   3.122970E+00   3.008039E+00   3.946110E+00   5.283864E+00   5.473358E+00   5.316140E+00   5.353179E+00   5.077924E+00
   3.546092E+00   3.448980E+00   3.450331E+00   3.499553E+00   4.417072E+00   5.307611E+00   5.324782E+00   4.509474E+00   4.552112E+00   4.608643E+00
   3.989551E+00   4.542464E+00   4.528379E+00   4.912539E+00   5.265357E+00   5.263553E+00   5.016599E+00   4.179853E+00   3.369577E+00   3.521593E+00
   5.149527E+00   6.096665E+00   6.071193E+00   5.633111E+00   6.060094E+00   4.637475E+00   3.763796E+00   3.138539E+00   2.760666E+00   3.118555E+00
   5.968939E+00   6.636227E+00   6.787861E+00   6.275185E+00   5.817745E+00   4.115800E+00   3.399571E+00   2.794074E+00   2.643754E+00   2.992870E+00
   6.382018E+00   7.106362E+00   7.904621E+00   6.374366E+00   4.527354E+00   3.896489E+00   3.059927E+00   2.743774E+00   2.541455E+00   2.887188E+00
   5.636873E+00   6.888415E+00   7.826442E+00   6.010175E+00   3.999513E+00   3.451916E+00   2.954577E+00   2.777383E+00   2.614652E+00   2.984541E+00
   5.400400E+00   7.674696E+00   8.237086E+00   6.016718E+00   3.840172E+00   3.539719E+00   3.383364E+00   2.885736E+00   2.788489E+00   3.099394E+00
   5.130504E+00   7.217981E+00   7.977979E+00   5.839413E+00   4.147116E+00   3.720006E+00   3.552772E+00   3.286894E+00   3.319654E+00   3.276716E+00
CONSTANT    1.000000E+00                           #hani layer 3                  
CONSTANT    1.000000E+00                           #vani3                         
