# Name file for MODFLOW-2005, generated by Flopy version 3.9.2.
#xll:0.0; yll:0.0; rotation:0.0; units:meters; lenuni:2; start_datetime:1-1-1970
LIST               2  3Dexample.list
DIS               11  3Dexample.dis
LPF               15  3Dexample.lpf
BAS6              13  3Dexample.bas
WEL               20  3Dexample.wel
PCG               27  3Dexample.pcg
OC                14  3Dexample.oc
DATA(BINARY)      51  3Dexample.hds REPLACE
