Flow Title=Base Hydrographs
Program Version=5.07
Use Restart= 0 
Boundary Location=Fall River      ,Upper Reach     ,10.4    ,        ,                ,                ,                ,                                
Interval=1HOUR
Flow Hydrograph= 73 
14.3201114.80376 15.605716.7199618.1380719.8489821.8399424.0956526.5991529.33115
32.2710135.3960638.68279 42.106345.64024  49.25852.9318356.6336960.3355564.00938
67.6271471.1610974.5845977.8713380.9966683.9362386.6682489.1717491.4274593.41841
95.1293196.5474297.6616998.4636298.9472799.1089698.9472798.4636297.6616996.54742
95.1293193.4184191.4274589.1717486.6682483.9362380.9966677.8713374.5845971.16109
67.6271464.0093860.3355556.6336952.93183  49.25845.64024 42.106338.6827935.39606
32.2710129.3311526.5991524.0956521.8399419.8489818.1380716.71996 15.605714.80376
14.3201114.1584214.15842
DSS Path=
Use DSS=False
Use Fixed Start Time=False
Fixed Start Date/Time=,
Is Critical Boundary=False
Critical Boundary Flow=
Boundary Location=Fall River      ,Lower Reach     ,9.3     ,        ,                ,                ,                ,                                
Friction Slope=0.0004,0
Boundary Location=Butte Cr.       ,Butte Cr.       ,0.4     ,        ,                ,                ,                ,                                
Interval=1HOUR
Flow Hydrograph= 73 
    8.79    9.05    9.40    9.85   10.39   11.04   11.82   12.73   13.80   15.06
   16.53   18.15   19.84   21.42   22.78   23.88   24.82   25.70   26.60   27.60
   28.73   30.04   31.52   33.12   34.74   36.21   37.33   37.99   38.23   38.17
   37.92   37.52   37.01   36.40   35.73   35.01   34.28   33.56   32.85   32.18
   31.50   30.76   29.84   28.67   27.18   25.39   23.36   21.20   19.01   16.92
   15.02   13.38   12.04   11.00   10.22    9.66    9.27    9.00    8.82    8.69
    8.60    8.54    8.49    8.46    8.44    8.42    8.41    8.40    8.39    8.39
    8.39    8.38    8.38
DSS Path=
Use DSS=False
Use Fixed Start Time=False
Fixed Start Date/Time=,
Is Critical Boundary=False
Critical Boundary Flow=
