Flow Title=Debug Mode - PostProcess Steady Flow
Program Version=5.07
Number of Profiles= 38 
Profile Names=Max WS,02Sep1998 2400,03Sep1998 0200,03Sep1998 0400,03Sep1998 0600,03Sep1998 0800,03Sep1998 1000,03Sep1998 1200,03Sep1998 1400,03Sep1998 1600,03Sep1998 1800,03Sep1998 2000,03Sep1998 2200,03Sep1998 2400,04Sep1998 0200,04Sep1998 0400,04Sep1998 0600,04Sep1998 0800,04Sep1998 1000,04Sep1998 1200,04Sep1998 1400,04Sep1998 1600,04Sep1998 1800,04Sep1998 2000,04Sep1998 2200,04Sep1998 2400,05Sep1998 0200,05Sep1998 0400,05Sep1998 0600,05Sep1998 0800,05Sep1998 1000,05Sep1998 1200,05Sep1998 1400,05Sep1998 1600,05Sep1998 1800,05Sep1998 2000,05Sep1998 2200,05Sep1998 2400
River Rch & RM=Fall River,Upper Reach     ,10.4    
97.3965617.8639725.2467332.5451239.7036246.6675853.3843359.8023565.8729271.55016
76.7904781.5542285.80486 89.510492.6425295.1771797.0953598.3820799.0279899.02798
98.3820797.0953595.1771792.64252 89.510485.8048681.5542276.7904771.5501665.87292
59.8023553.3843346.6675839.7036232.5451225.2467317.8639714.15842
River Rch & RM=Fall River,Upper Reach     ,10.3    
97.3260517.9547124.6682132.2265839.47451  46.47553.18026 59.612465.6659771.35109
76.5924881.3380785.6310589.3840292.53053 95.086597.0243698.3750899.0352299.05114
98.4216897.1539795.2557592.7283689.6257185.9491381.7268476.9737471.7508166.06649
59.9782853.5549446.86296 39.912232.8029425.63894 18.371314.17741
River Rch & RM=Fall River,Upper Reach     ,10.2    
97.3186917.9910424.2733431.9519339.2624746.3001752.9920359.4327565.4684171.15834
76.4015181.1296685.4628889.26359 92.423794.9992896.9560998.3697399.0431399.07417
98.4602597.2104995.3309692.8098889.7364386.0885981.8930977.15018 71.946266.25075
 60.143953.71301 47.041740.1029133.0211825.9890218.5616314.18314
River Rch & RM=Fall River,Upper Reach     ,10.11   
97.3175317.9962324.1797431.8978539.2206246.2660252.9548859.3967165.4284571.11909
76.3626681.0872785.42867 89.239392.4021194.9816196.9422798.3687999.0448599.07892
98.4680997.2220495.3461992.8263389.7588586.11697 81.926977.1860671.9860766.28793
60.1770453.7443547.0768140.1402933.0637726.0593418.5909114.18423
River Rch & RM=Fall River,Upper Reach     ,10.09   
97.3175317.9962324.1797431.8978539.2206246.2660252.9548859.3967165.4284571.11909
76.3626681.0872785.42867 89.239392.4021194.9816196.9422798.3687999.0448599.07892
98.4680997.2220495.3461992.8263389.7588586.11697 81.926977.1860671.9860766.28793
60.1770453.7443547.0768140.1402933.0637726.0593418.5909114.18423
River Rch & RM=Fall River,Upper Reach     ,10      
97.3120618.0179924.1263231.7379239.0577746.1416552.8096759.2633665.2976670.99744
 76.242480.95892 85.328489.1659592.3447294.9347896.9055298.3668699.0497599.09172
98.4890797.2521495.3858692.8767789.8258286.2037682.0282777.2971472.1170966.41037
60.3021153.85995 47.245540.27534 33.186126.2258418.6616114.18763
River Rch & RM=Fall River,Upper Reach     ,9.9     
97.3054118.0713224.0082131.5304138.7848245.9210952.5660459.0359565.0761170.79064
76.0384680.7410785.1593589.04331 92.248594.8564296.8439698.3647499.0587699.11369
98.5245997.3028695.4525292.9615589.9383386.3504982.2008977.4854672.3416766.61762
 60.515254.0509747.5390340.4969133.3964726.4387418.82097 14.1943
River Rch & RM=Fall River,Upper Reach     ,9.8     
97.3029918.1321523.9016631.3495838.5417745.7097652.3491858.8285164.8755770.60276
75.8535880.5430285.0071788.9336192.1625694.7867196.78905 98.364299.0678599.13405
 98.556797.3485195.5123693.0376690.0396486.48305 82.358977.6561472.5483266.80516
60.7094854.2175947.8157740.6884833.6303326.6298118.9703414.20103
River Rch & RM=Fall River,Lower Reach     ,9.79    
133.594726.6559434.0371643.2879652.4449261.53896  70.05578.4332286.3120793.90517
101.0446107.6501114.0186119.8923125.0473129.5786133.4827132.7475132.3452131.2264
129.3947126.8724123.6719119.8007115.3691110.3727 104.80798.6731792.0902184.85146
77.3662969.4711761.8137553.4254545.2393937.1639128.49221 23.1124
River Rch & RM=Fall River,Lower Reach     ,9.7     
133.594526.7289333.7836143.0077752.1263361.2806969.7881478.1760586.0614493.67286
100.8134107.4054 113.831119.7583124.9432129.4938 133.416132.7478 132.357131.2517
129.4341126.9282123.7446119.8934115.4939110.5367105.003898.8864292.3462585.08575
77.6070569.6723962.1678253.6687245.5209737.3962228.6829523.12153
River Rch & RM=Fall River,Lower Reach     ,9.6     
133.594126.7980733.5654642.7286251.8491461.0713769.5702777.9648685.8548193.48235
100.2247107.1333 113.623119.6117 124.829 129.401133.3432132.7481132.3699131.2793
129.4771126.9893123.8243119.9947115.6313110.7187105.224299.4301992.55234 85.2789
77.8045969.8349262.46513  53.87645.7563437.5956528.8807223.13314
River Rch & RM=Fall River,Lower Reach     ,9.5     
 133.57426.7980733.5654642.7286251.8491461.0713769.5702777.9648685.8548193.48235
100.2247107.1333 113.623119.6117 124.829 129.401133.3432132.7481132.3699131.2793
129.4771126.9893123.8243119.9947115.6313110.7187105.224299.4301992.55234 85.2789
77.8045969.8349262.46513  53.87645.7563437.5956528.8807223.13314
River Rch & RM=Fall River,Lower Reach     ,9.4     
133.557126.89594 33.399342.5181751.6577160.9147869.4059877.8446685.7401893.38584
100.1358107.0337113.5433 119.394124.6539129.2504133.2162132.7518132.3914131.3257
129.5482127.0847123.9444120.1429115.8023110.7867105.2905 99.512492.6573485.38614
77.9165769.9544262.5946254.0191745.9339237.7514529.04196 23.1464
River Rch & RM=Fall River,Lower Reach     ,9.3     
133.548327.0254133.1368842.1772151.3487260.6520269.1288777.6423685.5473493.22289
99.98573106.8655113.4085119.2769124.5559129.1643133.1429132.7538 132.404131.3524
 129.589 127.139124.0118120.2242 115.892110.9015105.402299.6511592.8355485.56649
78.1049170.15558 62.811754.2590446.2210537.99747 29.254323.16159
River Rch & RM=Butte Cr.,Butte Cr.       ,0.4     
 36.81198.49505410.3829412.2705414.1584216.0463117.9339119.8217921.7096823.59728
25.4851627.3730429.2606431.1485333.0364234.92402 36.811934.34862 33.230132.03088
30.7605929.4282828.0444426.61982 25.164923.6907222.20862 20.730219.26622  17.828
 16.426615.0724913.7761512.5474811.3955510.329429.3570188.908196
River Rch & RM=Butte Cr.,Butte Cr.       ,0.3     
36.779148.50088210.2760412.1625714.0896415.9950617.8852319.7787521.6449423.52175
25.4100927.3166529.1985231.10104 32.998334.8896436.7791434.3624133.2464732.05008
 30.783329.4548228.0752126.6578525.2043623.7357122.2668720.80447 19.326917.87085
16.4763915.1125913.8242912.5957411.46385 10.3951  9.42428.908774
River Rch & RM=Butte Cr.,Butte Cr.       ,0.24    
36.748248.50578910.2032212.0411914.0247815.94972 17.839319.7401521.5769923.43893
25.3297427.2583529.1336231.0548932.9613234.8569336.7482434.3743333.2609432.06755
30.8041229.4796828.10445 26.695625.2436423.7814122.3281620.8853919.3912417.91317
16.5268515.14901 13.870812.64455 11.532810.479249.4728758.909327
River Rch & RM=Butte Cr.,Butte Cr.       ,0.20    
36.698158.50578910.2032212.0411914.0247815.94972 17.839319.7401521.5769923.43893
25.3297427.2583529.1336231.0548932.9613234.8569336.7482434.3743333.2609432.06755
30.8041229.4796828.10445 26.695625.2436423.7814122.3281620.8853919.3912417.91317
16.5268515.14901 13.870812.64455 11.532810.479249.4728758.909327
River Rch & RM=Butte Cr.,Butte Cr.       ,0.1     
36.690458.51294210.1694711.9698513.9542515.8890517.7704219.6778521.5102523.37523
25.2645627.1870829.0749231.0067232.9226634.8234136.7195634.3808433.2710232.08154
30.8223829.5028128.1326226.7295325.2856323.8341422.3841520.9478819.46097 17.9765
16.58795 15.203313.9321512.6977711.5776210.505029.493421 8.90993
River Rch & RM=Butte Cr.,Butte Cr.       ,0.0     
36.291758.523792 10.135511.9383713.9031315.82917 17.705819.6047221.4365123.30241
25.1910627.1070429.0114330.9586132.8847834.7918936.6936234.3832833.2773432.09239
30.8379829.52391 28.159526.7630625.3294523.8896422.4481121.0170119.5418618.04629
16.6568315.2535513.9979712.7369611.6090510.534099.5218668.911366
Boundary for River Rch & Prof#=Fall River,Lower Reach     , 1 
Up Type= 0 
Dn Type= 1 
Dn Known WS=25.1824
Boundary for River Rch & Prof#=Fall River,Lower Reach     , 2 
Up Type= 0 
Dn Type= 1 
Dn Known WS=23.2862
Boundary for River Rch & Prof#=Fall River,Lower Reach     , 3 
Up Type= 0 
Dn Type= 1 
Dn Known WS=23.5226
Boundary for River Rch & Prof#=Fall River,Lower Reach     , 4 
Up Type= 0 
Dn Type= 1 
Dn Known WS=23.7928
Boundary for River Rch & Prof#=Fall River,Lower Reach     , 5 
Up Type= 0 
Dn Type= 1 
Dn Known WS=24.009
Boundary for River Rch & Prof#=Fall River,Lower Reach     , 6 
Up Type= 0 
Dn Type= 1 
Dn Known WS=24.1799
Boundary for River Rch & Prof#=Fall River,Lower Reach     , 7 
Up Type= 0 
Dn Type= 1 
Dn Known WS=24.3301
Boundary for River Rch & Prof#=Fall River,Lower Reach     , 8 
Up Type= 0 
Dn Type= 1 
Dn Known WS=24.4582
Boundary for River Rch & Prof#=Fall River,Lower Reach     , 9 
Up Type= 0 
Dn Type= 1 
Dn Known WS=24.5759
Boundary for River Rch & Prof#=Fall River,Lower Reach     , 10 
Up Type= 0 
Dn Type= 1 
Dn Known WS=24.6843
Boundary for River Rch & Prof#=Fall River,Lower Reach     , 11 
Up Type= 0 
Dn Type= 1 
Dn Known WS=24.7724
Boundary for River Rch & Prof#=Fall River,Lower Reach     , 12 
Up Type= 0 
Dn Type= 1 
Dn Known WS=24.862
Boundary for River Rch & Prof#=Fall River,Lower Reach     , 13 
Up Type= 0 
Dn Type= 1 
Dn Known WS=24.9473
Boundary for River Rch & Prof#=Fall River,Lower Reach     , 14 
Up Type= 0 
Dn Type= 1 
Dn Known WS=25.0158
Boundary for River Rch & Prof#=Fall River,Lower Reach     , 15 
Up Type= 0 
Dn Type= 1 
Dn Known WS=25.0774
Boundary for River Rch & Prof#=Fall River,Lower Reach     , 16 
Up Type= 0 
Dn Type= 1 
Dn Known WS=25.1312
Boundary for River Rch & Prof#=Fall River,Lower Reach     , 17 
Up Type= 0 
Dn Type= 1 
Dn Known WS=25.1777
Boundary for River Rch & Prof#=Fall River,Lower Reach     , 18 
Up Type= 0 
Dn Type= 1 
Dn Known WS=25.1731
Boundary for River Rch & Prof#=Fall River,Lower Reach     , 19 
Up Type= 0 
Dn Type= 1 
Dn Known WS=25.169
Boundary for River Rch & Prof#=Fall River,Lower Reach     , 20 
Up Type= 0 
Dn Type= 1 
Dn Known WS=25.1568
Boundary for River Rch & Prof#=Fall River,Lower Reach     , 21 
Up Type= 0 
Dn Type= 1 
Dn Known WS=25.1362
Boundary for River Rch & Prof#=Fall River,Lower Reach     , 22 
Up Type= 0 
Dn Type= 1 
Dn Known WS=25.1076
Boundary for River Rch & Prof#=Fall River,Lower Reach     , 23 
Up Type= 0 
Dn Type= 1 
Dn Known WS=25.0711
Boundary for River Rch & Prof#=Fall River,Lower Reach     , 24 
Up Type= 0 
Dn Type= 1 
Dn Known WS=25.0269
Boundary for River Rch & Prof#=Fall River,Lower Reach     , 25 
Up Type= 0 
Dn Type= 1 
Dn Known WS=24.9763
Boundary for River Rch & Prof#=Fall River,Lower Reach     , 26 
Up Type= 0 
Dn Type= 1 
Dn Known WS=24.9146
Boundary for River Rch & Prof#=Fall River,Lower Reach     , 27 
Up Type= 0 
Dn Type= 1 
Dn Known WS=24.843
Boundary for River Rch & Prof#=Fall River,Lower Reach     , 28 
Up Type= 0 
Dn Type= 1 
Dn Known WS=24.7681
Boundary for River Rch & Prof#=Fall River,Lower Reach     , 29 
Up Type= 0 
Dn Type= 1 
Dn Known WS=24.6793
Boundary for River Rch & Prof#=Fall River,Lower Reach     , 30 
Up Type= 0 
Dn Type= 1 
Dn Known WS=24.5762
Boundary for River Rch & Prof#=Fall River,Lower Reach     , 31 
Up Type= 0 
Dn Type= 1 
Dn Known WS=24.4651
Boundary for River Rch & Prof#=Fall River,Lower Reach     , 32 
Up Type= 0 
Dn Type= 1 
Dn Known WS=24.3467
Boundary for River Rch & Prof#=Fall River,Lower Reach     , 33 
Up Type= 0 
Dn Type= 1 
Dn Known WS=24.2182
Boundary for River Rch & Prof#=Fall River,Lower Reach     , 34 
Up Type= 0 
Dn Type= 1 
Dn Known WS=24.0666
Boundary for River Rch & Prof#=Fall River,Lower Reach     , 35 
Up Type= 0 
Dn Type= 1 
Dn Known WS=23.8881
Boundary for River Rch & Prof#=Fall River,Lower Reach     , 36 
Up Type= 0 
Dn Type= 1 
Dn Known WS=23.6812
Boundary for River Rch & Prof#=Fall River,Lower Reach     , 37 
Up Type= 0 
Dn Type= 1 
Dn Known WS=23.3856
Boundary for River Rch & Prof#=Fall River,Lower Reach     , 38 
Up Type= 0 
Dn Type= 1 
Dn Known WS=23.1122
Set Internal Change=Fall River      ,Upper Reach     ,10.4    , 1 , 3 ,26.1052
Set Internal Change=Fall River      ,Upper Reach     ,10.3    , 1 , 3 ,26.0644
Set Internal Change=Fall River      ,Upper Reach     ,10.2    , 1 , 3 ,26.0232
Set Internal Change=Fall River      ,Upper Reach     ,10.11   , 1 , 3 ,26.0149
Set Internal Change=Fall River      ,Upper Reach     ,10.09   , 1 , 3 ,25.9995
Set Internal Change=Fall River      ,Upper Reach     ,10      , 1 , 3 ,25.9757
Set Internal Change=Fall River      ,Upper Reach     ,9.9     , 1 , 3 ,25.9319
Set Internal Change=Fall River      ,Upper Reach     ,9.8     , 1 , 3 ,25.8808
Set Internal Change=Fall River      ,Upper Reach     ,10.4    , 2 , 3 ,24.0123
Set Internal Change=Fall River      ,Upper Reach     ,10.3    , 2 , 3 ,23.9512
Set Internal Change=Fall River      ,Upper Reach     ,10.2    , 2 , 3 ,23.9027
Set Internal Change=Fall River      ,Upper Reach     ,10.11   , 2 , 3 ,23.8892
Set Internal Change=Fall River      ,Upper Reach     ,10.09   , 2 , 3 ,23.7267
Set Internal Change=Fall River      ,Upper Reach     ,10      , 2 , 3 ,23.7018
Set Internal Change=Fall River      ,Upper Reach     ,9.9     , 2 , 3 ,23.6228
Set Internal Change=Fall River      ,Upper Reach     ,9.8     , 2 , 3 ,23.5459
Set Internal Change=Fall River      ,Upper Reach     ,10.4    , 3 , 3 ,24.3928
Set Internal Change=Fall River      ,Upper Reach     ,10.3    , 3 , 3 ,24.3368
Set Internal Change=Fall River      ,Upper Reach     ,10.2    , 3 , 3 ,24.2887
Set Internal Change=Fall River      ,Upper Reach     ,10.11   , 3 , 3 ,24.2773
Set Internal Change=Fall River      ,Upper Reach     ,10.09   , 3 , 3 ,23.9952
Set Internal Change=Fall River      ,Upper Reach     ,10      , 3 , 3 ,23.9719
Set Internal Change=Fall River      ,Upper Reach     ,9.9     , 3 , 3 ,23.8826
Set Internal Change=Fall River      ,Upper Reach     ,9.8     , 3 , 3 ,23.7932
Set Internal Change=Fall River      ,Upper Reach     ,10.4    , 4 , 3 ,24.7054
Set Internal Change=Fall River      ,Upper Reach     ,10.3    , 4 , 3 ,24.6569
Set Internal Change=Fall River      ,Upper Reach     ,10.2    , 4 , 3 ,24.6089
Set Internal Change=Fall River      ,Upper Reach     ,10.11   , 4 , 3 ,24.5997
Set Internal Change=Fall River      ,Upper Reach     ,10.09   , 4 , 3 ,24.2979
Set Internal Change=Fall River      ,Upper Reach     ,10      , 4 , 3 ,24.2586
Set Internal Change=Fall River      ,Upper Reach     ,9.9     , 4 , 3 ,24.1692
Set Internal Change=Fall River      ,Upper Reach     ,9.8     , 4 , 3 ,24.0751
Set Internal Change=Fall River      ,Upper Reach     ,10.4    , 5 , 3 ,24.8748
Set Internal Change=Fall River      ,Upper Reach     ,10.3    , 5 , 3 ,24.8234
Set Internal Change=Fall River      ,Upper Reach     ,10.2    , 5 , 3 ,24.7695
Set Internal Change=Fall River      ,Upper Reach     ,10.11   , 5 , 3 ,24.7591
Set Internal Change=Fall River      ,Upper Reach     ,10.09   , 5 , 3 ,24.5301
Set Internal Change=Fall River      ,Upper Reach     ,10      , 5 , 3 ,24.4842
Set Internal Change=Fall River      ,Upper Reach     ,9.9     , 5 , 3 ,24.3985
Set Internal Change=Fall River      ,Upper Reach     ,9.8     , 5 , 3 ,24.3063
Set Internal Change=Fall River      ,Upper Reach     ,10.4    , 6 , 3 ,25.0069
Set Internal Change=Fall River      ,Upper Reach     ,10.3    , 6 , 3 ,24.9529
Set Internal Change=Fall River      ,Upper Reach     ,10.2    , 6 , 3 ,24.8951
Set Internal Change=Fall River      ,Upper Reach     ,10.11   , 6 , 3 ,24.8838
Set Internal Change=Fall River      ,Upper Reach     ,10.09   , 6 , 3 ,24.7166
Set Internal Change=Fall River      ,Upper Reach     ,10      , 6 , 3 ,24.6707
Set Internal Change=Fall River      ,Upper Reach     ,9.9     , 6 , 3 ,24.5857
Set Internal Change=Fall River      ,Upper Reach     ,9.8     , 6 , 3 ,24.4937
Set Internal Change=Fall River      ,Upper Reach     ,10.4    , 7 , 3 ,25.1299
Set Internal Change=Fall River      ,Upper Reach     ,10.3    , 7 , 3 ,25.0738
Set Internal Change=Fall River      ,Upper Reach     ,10.2    , 7 , 3 ,25.0126
Set Internal Change=Fall River      ,Upper Reach     ,10.11   , 7 , 3 ,25.0006
Set Internal Change=Fall River      ,Upper Reach     ,10.09   , 7 , 3 ,24.8999
Set Internal Change=Fall River      ,Upper Reach     ,10      , 7 , 3 ,24.8587
Set Internal Change=Fall River      ,Upper Reach     ,9.9     , 7 , 3 ,24.7832
Set Internal Change=Fall River      ,Upper Reach     ,9.8     , 7 , 3 ,24.7007
Set Internal Change=Fall River      ,Upper Reach     ,10.4    , 8 , 3 ,25.2429
Set Internal Change=Fall River      ,Upper Reach     ,10.3    , 8 , 3 ,25.186
Set Internal Change=Fall River      ,Upper Reach     ,10.2    , 8 , 3 ,25.1242
Set Internal Change=Fall River      ,Upper Reach     ,10.11   , 8 , 3 ,25.1119
Set Internal Change=Fall River      ,Upper Reach     ,10.09   , 8 , 3 ,25.0491
Set Internal Change=Fall River      ,Upper Reach     ,10      , 8 , 3 ,25.0096
Set Internal Change=Fall River      ,Upper Reach     ,9.9     , 8 , 3 ,24.9376
Set Internal Change=Fall River      ,Upper Reach     ,9.8     , 8 , 3 ,24.859
Set Internal Change=Fall River      ,Upper Reach     ,10.4    , 9 , 3 ,25.3611
Set Internal Change=Fall River      ,Upper Reach     ,10.3    , 9 , 3 ,25.3052
Set Internal Change=Fall River      ,Upper Reach     ,10.2    , 9 , 3 ,25.2446
Set Internal Change=Fall River      ,Upper Reach     ,10.11   , 9 , 3 ,25.2326
Set Internal Change=Fall River      ,Upper Reach     ,10.09   , 9 , 3 ,25.1976
Set Internal Change=Fall River      ,Upper Reach     ,10      , 9 , 3 ,25.1613
Set Internal Change=Fall River      ,Upper Reach     ,9.9     , 9 , 3 ,25.095
Set Internal Change=Fall River      ,Upper Reach     ,9.8     , 9 , 3 ,25.0215
Set Internal Change=Fall River      ,Upper Reach     ,10.4    , 10 , 3 ,25.486
Set Internal Change=Fall River      ,Upper Reach     ,10.3    , 10 , 3 ,25.4325
Set Internal Change=Fall River      ,Upper Reach     ,10.2    , 10 , 3 ,25.375
Set Internal Change=Fall River      ,Upper Reach     ,10.11   , 10 , 3 ,25.3636
Set Internal Change=Fall River      ,Upper Reach     ,10.09   , 10 , 3 ,25.3416
Set Internal Change=Fall River      ,Upper Reach     ,10      , 10 , 3 ,25.3078
Set Internal Change=Fall River      ,Upper Reach     ,9.9     , 10 , 3 ,25.2466
Set Internal Change=Fall River      ,Upper Reach     ,9.8     , 10 , 3 ,25.1786
Set Internal Change=Fall River      ,Upper Reach     ,10.4    , 11 , 3 ,25.5995
Set Internal Change=Fall River      ,Upper Reach     ,10.3    , 11 , 3 ,25.5483
Set Internal Change=Fall River      ,Upper Reach     ,10.2    , 11 , 3 ,25.4938
Set Internal Change=Fall River      ,Upper Reach     ,10.11   , 11 , 3 ,25.483
Set Internal Change=Fall River      ,Upper Reach     ,10.09   , 11 , 3 ,25.4682
Set Internal Change=Fall River      ,Upper Reach     ,10      , 11 , 3 ,25.4368
Set Internal Change=Fall River      ,Upper Reach     ,9.9     , 11 , 3 ,25.3796
Set Internal Change=Fall River      ,Upper Reach     ,9.8     , 11 , 3 ,25.3152
Set Internal Change=Fall River      ,Upper Reach     ,10.4    , 12 , 3 ,25.7254
Set Internal Change=Fall River      ,Upper Reach     ,10.3    , 12 , 3 ,25.6776
Set Internal Change=Fall River      ,Upper Reach     ,10.2    , 12 , 3 ,25.6274
Set Internal Change=Fall River      ,Upper Reach     ,10.11   , 12 , 3 ,25.6174
Set Internal Change=Fall River      ,Upper Reach     ,10.09   , 12 , 3 ,25.6093
Set Internal Change=Fall River      ,Upper Reach     ,10      , 12 , 3 ,25.5808
Set Internal Change=Fall River      ,Upper Reach     ,9.9     , 12 , 3 ,25.5289
Set Internal Change=Fall River      ,Upper Reach     ,9.8     , 12 , 3 ,25.4705
Set Internal Change=Fall River      ,Upper Reach     ,10.4    , 13 , 3 ,25.8373
Set Internal Change=Fall River      ,Upper Reach     ,10.3    , 13 , 3 ,25.7922
Set Internal Change=Fall River      ,Upper Reach     ,10.2    , 13 , 3 ,25.7457
Set Internal Change=Fall River      ,Upper Reach     ,10.11   , 13 , 3 ,25.7364
Set Internal Change=Fall River      ,Upper Reach     ,10.09   , 13 , 3 ,25.7308
Set Internal Change=Fall River      ,Upper Reach     ,10      , 13 , 3 ,25.7044
Set Internal Change=Fall River      ,Upper Reach     ,9.9     , 13 , 3 ,25.6563
Set Internal Change=Fall River      ,Upper Reach     ,9.8     , 13 , 3 ,25.6015
Set Internal Change=Fall River      ,Upper Reach     ,10.4    , 14 , 3 ,25.925
Set Internal Change=Fall River      ,Upper Reach     ,10.3    , 14 , 3 ,25.8816
Set Internal Change=Fall River      ,Upper Reach     ,10.2    , 14 , 3 ,25.837
Set Internal Change=Fall River      ,Upper Reach     ,10.11   , 14 , 3 ,25.8281
Set Internal Change=Fall River      ,Upper Reach     ,10.09   , 14 , 3 ,25.8244
Set Internal Change=Fall River      ,Upper Reach     ,10      , 14 , 3 ,25.7992
Set Internal Change=Fall River      ,Upper Reach     ,9.9     , 14 , 3 ,25.7529
Set Internal Change=Fall River      ,Upper Reach     ,9.8     , 14 , 3 ,25.6999
Set Internal Change=Fall River      ,Upper Reach     ,10.4    , 15 , 3 ,25.9947
Set Internal Change=Fall River      ,Upper Reach     ,10.3    , 15 , 3 ,25.9522
Set Internal Change=Fall River      ,Upper Reach     ,10.2    , 15 , 3 ,25.9088
Set Internal Change=Fall River      ,Upper Reach     ,10.11   , 15 , 3 ,25.9001
Set Internal Change=Fall River      ,Upper Reach     ,10.09   , 15 , 3 ,25.8944
Set Internal Change=Fall River      ,Upper Reach     ,10      , 15 , 3 ,25.8698
Set Internal Change=Fall River      ,Upper Reach     ,9.9     , 15 , 3 ,25.8246
Set Internal Change=Fall River      ,Upper Reach     ,9.8     , 15 , 3 ,25.7726
Set Internal Change=Fall River      ,Upper Reach     ,10.4    , 16 , 3 ,26.0546
Set Internal Change=Fall River      ,Upper Reach     ,10.3    , 16 , 3 ,26.0131
Set Internal Change=Fall River      ,Upper Reach     ,10.2    , 16 , 3 ,25.9709
Set Internal Change=Fall River      ,Upper Reach     ,10.11   , 16 , 3 ,25.9625
Set Internal Change=Fall River      ,Upper Reach     ,10.09   , 16 , 3 ,25.9513
Set Internal Change=Fall River      ,Upper Reach     ,10      , 16 , 3 ,25.9272
Set Internal Change=Fall River      ,Upper Reach     ,9.9     , 16 , 3 ,25.8829
Set Internal Change=Fall River      ,Upper Reach     ,9.8     , 16 , 3 ,25.8316
Set Internal Change=Fall River      ,Upper Reach     ,10.4    , 17 , 3 ,26.1017
Set Internal Change=Fall River      ,Upper Reach     ,10.3    , 17 , 3 ,26.061
Set Internal Change=Fall River      ,Upper Reach     ,10.2    , 17 , 3 ,26.02
Set Internal Change=Fall River      ,Upper Reach     ,10.11   , 17 , 3 ,26.0118
Set Internal Change=Fall River      ,Upper Reach     ,10.09   , 17 , 3 ,25.9961
Set Internal Change=Fall River      ,Upper Reach     ,10      , 17 , 3 ,25.9724
Set Internal Change=Fall River      ,Upper Reach     ,9.9     , 17 , 3 ,25.9289
Set Internal Change=Fall River      ,Upper Reach     ,9.8     , 17 , 3 ,25.8782
Set Internal Change=Fall River      ,Upper Reach     ,10.4    , 18 , 3 ,26.1014
Set Internal Change=Fall River      ,Upper Reach     ,10.3    , 18 , 3 ,26.0594
Set Internal Change=Fall River      ,Upper Reach     ,10.2    , 18 , 3 ,26.017
Set Internal Change=Fall River      ,Upper Reach     ,10.11   , 18 , 3 ,26.0085
Set Internal Change=Fall River      ,Upper Reach     ,10.09   , 18 , 3 ,25.9935
Set Internal Change=Fall River      ,Upper Reach     ,10      , 18 , 3 ,25.969
Set Internal Change=Fall River      ,Upper Reach     ,9.9     , 18 , 3 ,25.9238
Set Internal Change=Fall River      ,Upper Reach     ,9.8     , 18 , 3 ,25.871
Set Internal Change=Fall River      ,Upper Reach     ,10.4    , 19 , 3 ,26.1005
Set Internal Change=Fall River      ,Upper Reach     ,10.3    , 19 , 3 ,26.0579
Set Internal Change=Fall River      ,Upper Reach     ,10.2    , 19 , 3 ,26.0148
Set Internal Change=Fall River      ,Upper Reach     ,10.11   , 19 , 3 ,26.0061
Set Internal Change=Fall River      ,Upper Reach     ,10.09   , 19 , 3 ,25.9914
Set Internal Change=Fall River      ,Upper Reach     ,10      , 19 , 3 ,25.9664
Set Internal Change=Fall River      ,Upper Reach     ,9.9     , 19 , 3 ,25.9204
Set Internal Change=Fall River      ,Upper Reach     ,9.8     , 19 , 3 ,25.8666
Set Internal Change=Fall River      ,Upper Reach     ,10.4    , 20 , 3 ,26.09
Set Internal Change=Fall River      ,Upper Reach     ,10.3    , 20 , 3 ,26.0469
Set Internal Change=Fall River      ,Upper Reach     ,10.2    , 20 , 3 ,26.003
Set Internal Change=Fall River      ,Upper Reach     ,10.11   , 20 , 3 ,25.9942
Set Internal Change=Fall River      ,Upper Reach     ,10.09   , 20 , 3 ,25.9805
Set Internal Change=Fall River      ,Upper Reach     ,10      , 20 , 3 ,25.9552
Set Internal Change=Fall River      ,Upper Reach     ,9.9     , 20 , 3 ,25.9084
Set Internal Change=Fall River      ,Upper Reach     ,9.8     , 20 , 3 ,25.8538
Set Internal Change=Fall River      ,Upper Reach     ,10.4    , 21 , 3 ,26.0697
Set Internal Change=Fall River      ,Upper Reach     ,10.3    , 21 , 3 ,26.0259
Set Internal Change=Fall River      ,Upper Reach     ,10.2    , 21 , 3 ,25.9813
Set Internal Change=Fall River      ,Upper Reach     ,10.11   , 21 , 3 ,25.9724
Set Internal Change=Fall River      ,Upper Reach     ,10.09   , 21 , 3 ,25.9608
Set Internal Change=Fall River      ,Upper Reach     ,10      , 21 , 3 ,25.9351
Set Internal Change=Fall River      ,Upper Reach     ,9.9     , 21 , 3 ,25.8876
Set Internal Change=Fall River      ,Upper Reach     ,9.8     , 21 , 3 ,25.8322
Set Internal Change=Fall River      ,Upper Reach     ,10.4    , 22 , 3 ,26.0386
Set Internal Change=Fall River      ,Upper Reach     ,10.3    , 22 , 3 ,25.9941
Set Internal Change=Fall River      ,Upper Reach     ,10.2    , 22 , 3 ,25.9486
Set Internal Change=Fall River      ,Upper Reach     ,10.11   , 22 , 3 ,25.9395
Set Internal Change=Fall River      ,Upper Reach     ,10.09   , 22 , 3 ,25.9312
Set Internal Change=Fall River      ,Upper Reach     ,10      , 22 , 3 ,25.9051
Set Internal Change=Fall River      ,Upper Reach     ,9.9     , 22 , 3 ,25.8569
Set Internal Change=Fall River      ,Upper Reach     ,9.8     , 22 , 3 ,25.8008
Set Internal Change=Fall River      ,Upper Reach     ,10.4    , 23 , 3 ,25.9954
Set Internal Change=Fall River      ,Upper Reach     ,10.3    , 23 , 3 ,25.9503
Set Internal Change=Fall River      ,Upper Reach     ,10.2    , 23 , 3 ,25.9038
Set Internal Change=Fall River      ,Upper Reach     ,10.11   , 23 , 3 ,25.8945
Set Internal Change=Fall River      ,Upper Reach     ,10.09   , 23 , 3 ,25.8911
Set Internal Change=Fall River      ,Upper Reach     ,10      , 23 , 3 ,25.8646
Set Internal Change=Fall River      ,Upper Reach     ,9.9     , 23 , 3 ,25.8157
Set Internal Change=Fall River      ,Upper Reach     ,9.8     , 23 , 3 ,25.7589
Set Internal Change=Fall River      ,Upper Reach     ,10.4    , 24 , 3 ,25.9426
Set Internal Change=Fall River      ,Upper Reach     ,10.3    , 24 , 3 ,25.8968
Set Internal Change=Fall River      ,Upper Reach     ,10.2    , 24 , 3 ,25.8494
Set Internal Change=Fall River      ,Upper Reach     ,10.11   , 24 , 3 ,25.84
Set Internal Change=Fall River      ,Upper Reach     ,10.09   , 24 , 3 ,25.8396
Set Internal Change=Fall River      ,Upper Reach     ,10      , 24 , 3 ,25.8128
Set Internal Change=Fall River      ,Upper Reach     ,9.9     , 24 , 3 ,25.763
Set Internal Change=Fall River      ,Upper Reach     ,9.8     , 24 , 3 ,25.7054
Set Internal Change=Fall River      ,Upper Reach     ,10.4    , 25 , 3 ,25.8814
Set Internal Change=Fall River      ,Upper Reach     ,10.3    , 25 , 3 ,25.8349
Set Internal Change=Fall River      ,Upper Reach     ,10.2    , 25 , 3 ,25.7866
Set Internal Change=Fall River      ,Upper Reach     ,10.11   , 25 , 3 ,25.7769
Set Internal Change=Fall River      ,Upper Reach     ,10.09   , 25 , 3 ,25.7747
Set Internal Change=Fall River      ,Upper Reach     ,10      , 25 , 3 ,25.7472
Set Internal Change=Fall River      ,Upper Reach     ,9.9     , 25 , 3 ,25.6963
Set Internal Change=Fall River      ,Upper Reach     ,9.8     , 25 , 3 ,25.6375
Set Internal Change=Fall River      ,Upper Reach     ,10.4    , 26 , 3 ,25.8002
Set Internal Change=Fall River      ,Upper Reach     ,10.3    , 26 , 3 ,25.7522
Set Internal Change=Fall River      ,Upper Reach     ,10.2    , 26 , 3 ,25.7018
Set Internal Change=Fall River      ,Upper Reach     ,10.11   , 26 , 3 ,25.6917
Set Internal Change=Fall River      ,Upper Reach     ,10.09   , 26 , 3 ,25.6883
Set Internal Change=Fall River      ,Upper Reach     ,10      , 26 , 3 ,25.6595
Set Internal Change=Fall River      ,Upper Reach     ,9.9     , 26 , 3 ,25.6065
Set Internal Change=Fall River      ,Upper Reach     ,9.8     , 26 , 3 ,25.5456
Set Internal Change=Fall River      ,Upper Reach     ,10.4    , 27 , 3 ,25.7044
Set Internal Change=Fall River      ,Upper Reach     ,10.3    , 27 , 3 ,25.6545
Set Internal Change=Fall River      ,Upper Reach     ,10.2    , 27 , 3 ,25.6014
Set Internal Change=Fall River      ,Upper Reach     ,10.11   , 27 , 3 ,25.5908
Set Internal Change=Fall River      ,Upper Reach     ,10.09   , 27 , 3 ,25.5837
Set Internal Change=Fall River      ,Upper Reach     ,10      , 27 , 3 ,25.5532
Set Internal Change=Fall River      ,Upper Reach     ,9.9     , 27 , 3 ,25.4969
Set Internal Change=Fall River      ,Upper Reach     ,9.8     , 27 , 3 ,25.4326
Set Internal Change=Fall River      ,Upper Reach     ,10.4    , 28 , 3 ,25.5986
Set Internal Change=Fall River      ,Upper Reach     ,10.3    , 28 , 3 ,25.5467
Set Internal Change=Fall River      ,Upper Reach     ,10.2    , 28 , 3 ,25.4909
Set Internal Change=Fall River      ,Upper Reach     ,10.11   , 28 , 3 ,25.4797