Flow Title=Base Hydrographs
Program Version=5.07
Use Restart= 0 
Boundary Location=Fall River      ,Upper Reach     ,10.4    ,        ,                ,                ,                ,                                
Interval=1HOUR
Flow Hydrograph= 73 
14.3201114.80376 15.605716.7199618.1380719.8489821.8399424.0956526.5991529.33115
32.2710135.3960638.68279 42.106345.64024  49.25852.9318356.6336960.3355564.00938
67.6271471.1610974.5845977.8713380.9966683.9362386.6682489.1717491.4274593.41841
95.1293196.5474297.6616998.4636298.9472799.1089698.9472798.4636297.6616996.54742
95.1293193.4184191.4274589.1717486.6682483.9362380.9966677.8713374.5845971.16109
67.6271464.0093860.3355556.6336952.93183  49.25845.64024 42.106338.6827935.39606
32.2710129.3311526.5991524.0956521.8399419.8489818.1380716.71996 15.605714.80376
14.3201114.1584214.15842
DSS Path=
Use DSS=False
Use Fixed Start Time=False
Fixed Start Date/Time=,
Is Critical Boundary=False
Critical Boundary Flow=
Boundary Location=Fall River      ,Lower Reach     ,9.3     ,        ,                ,                ,                ,                                
Friction Slope=0.0004,0
Boundary Location=Butte Cr.       ,Butte Cr.       ,0.4     ,        ,                ,                ,                ,                                
Interval=1HOUR
Flow Hydrograph= 73 
   8.568   8.785   9.144   9.642  10.274  11.033  11.911  12.899  13.987  15.164
  16.418  17.736  19.105   20.51  21.936   23.37  24.797  26.202  27.571  28.889
  30.143   31.32  32.408  33.396  34.274  35.033  35.665  36.163  36.522  36.739
  36.812  36.739  36.522  36.163  35.665  35.033  34.274  33.396  32.408   31.32
  30.143  28.889  27.571  26.202  24.797   23.37  21.936   20.51  19.105  17.736
  16.418  15.164  13.987  12.899  11.911  11.033  10.274   9.642   9.144   8.785
   8.568   8.495   8.495   8.495   8.495   8.495   8.495   8.495   8.495   8.495
   8.495   8.495   8.495
DSS Path=
Use DSS=False
Use Fixed Start Time=False
Fixed Start Date/Time=,
Is Critical Boundary=False
Critical Boundary Flow=
