# Name file for MODFLOW-2005, generated by Flopy version 3.2.12.
#xll:0; yll:0; rotation:0; proj4_str:None; units:meters; lenuni:2;  ;start_datetime:1-1-1970
LIST               1  Ayvaz.out
DIS               11  Ayvaz.dis 
LMT6               3  Ayvaz.lmt 
BAS6              13  Ayvaz.bas 
LPF               15  Ayvaz.lpf 
OC                10  Ayvaz.oc 
CHD               24  Ayvaz.chd 
PCG               12  Ayvaz.pcg 
DATA(BINARY)      40  ModelFiles\Ayvaz.ccf REPLACE
DATA(BINARY)       2  Ayvaz.hed REPLACE
