# BAS6 package for  MODFLOW-2005, generated by Flopy.
FREE
INTERNAL               1     (FREE) -1 #ibound_layer_0                
         0         0         0         1         1         1         1         1         0         0         0         0         0         0         0         0         0         0         0         0         0         0         0         0         0
         0         0         1         1         1         1         1         1         1         1         0         0         0         0         0         0         0         0         0         0         0         0         0         0         0
         0         0         1         1         1         1         1         1         1         1         1         1         1         1         1         0         0         0         0         0         0         0         0         0         0
         0         1         1         1         1         1         1         1         1         1         1         1         1         1         1         1         0         0         0         0         0         0         0         0         0
         1         1         1         1         1         1         1         1         1         1         1         1         1         1         1         1         1         1         1         1         1         0         0         0         0
         0         1         1         1         1         1         1         1         1         1         1         1         1         1         1         1         1         1         1         1         1         1         1         0         0
         0         1         1         1         1         1         1         1         1         1         1         1         1         1         1         1         1         1         1         1         1         1         1         1         0
         0         0         1         1         1         1         1         1         1         1         1         1         1         1         1         1         1         1         1         1         1         1         1         1         1
         0         0         0         1         1         1         1         1         1         1         1         1         1         1         1         1         1         1         1         1         1         1         1         1         1
         0         0         0         0         1         1         1         1         1         1         1         1         1         1         1         1         1         1         1         1         1         1         1         1         1
         0         0         0         0         0         0         0         0         0         0         0         0         1         1         1         1         1         1         1         1         1         1         1         1         1
         0         0         0         0         0         0         0         0         0         0         0         0         0         1         1         1         1         1         1         1         1         1         1         1         0
         0         0         0         0         0         0         0         0         0         0         0         0         0         0         0         0         1         1         1         1         1         1         1         0         0
         0         0         0         0         0         0         0         0         0         0         0         0         0         0         0         0         0         1         1         1         1         1         0         0         0
         0         0         0         0         0         0         0         0         0         0         0         0         0         0         0         0         0         0         0         1         1         0         0         0         0
    -999.0
INTERNAL               1     (FREE) -1 #strt_layer_0                  
   3.000000E+01   3.000000E+01   3.000000E+01   3.000000E+01   3.000000E+01   3.000000E+01   3.000000E+01   3.000000E+01   3.000000E+01   3.000000E+01   3.000000E+01   3.000000E+01   3.000000E+01   3.000000E+01   3.000000E+01   3.000000E+01   3.000000E+01   3.000000E+01   3.000000E+01   3.000000E+01   3.000000E+01   3.000000E+01   3.000000E+01   3.000000E+01   3.000000E+01
   3.000000E+01   3.000000E+01   3.000000E+01   3.000000E+01   3.000000E+01   3.000000E+01   3.000000E+01   3.000000E+01   3.000000E+01   3.000000E+01   3.000000E+01   3.000000E+01   3.000000E+01   3.000000E+01   3.000000E+01   3.000000E+01   3.000000E+01   3.000000E+01   3.000000E+01   3.000000E+01   3.000000E+01   3.000000E+01   3.000000E+01   3.000000E+01   3.000000E+01
   3.000000E+01   3.000000E+01   3.000000E+01   3.000000E+01   3.000000E+01   3.000000E+01   3.000000E+01   3.000000E+01   3.000000E+01   3.000000E+01   3.000000E+01   3.000000E+01   3.000000E+01   3.000000E+01   3.000000E+01   3.000000E+01   3.000000E+01   3.000000E+01   3.000000E+01   3.000000E+01   3.000000E+01   3.000000E+01   3.000000E+01   3.000000E+01   3.000000E+01
   3.000000E+01   3.000000E+01   3.000000E+01   3.000000E+01   3.000000E+01   3.000000E+01   3.000000E+01   3.000000E+01   3.000000E+01   3.000000E+01   3.000000E+01   3.000000E+01   3.000000E+01   3.000000E+01   3.000000E+01   3.000000E+01   3.000000E+01   3.000000E+01   3.000000E+01   3.000000E+01   3.000000E+01   3.000000E+01   3.000000E+01   3.000000E+01   3.000000E+01
   3.000000E+01   3.000000E+01   3.000000E+01   3.000000E+01   3.000000E+01   3.000000E+01   3.000000E+01   3.000000E+01   3.000000E+01   3.000000E+01   3.000000E+01   3.000000E+01   3.000000E+01   3.000000E+01   3.000000E+01   3.000000E+01   3.000000E+01   3.000000E+01   3.000000E+01   3.000000E+01   3.000000E+01   3.000000E+01   3.000000E+01   3.000000E+01   3.000000E+01
   3.000000E+01   3.000000E+01   3.000000E+01   3.000000E+01   3.000000E+01   3.000000E+01   3.000000E+01   3.000000E+01   3.000000E+01   3.000000E+01   3.000000E+01   3.000000E+01   3.000000E+01   3.000000E+01   3.000000E+01   3.000000E+01   3.000000E+01   3.000000E+01   3.000000E+01   3.000000E+01   3.000000E+01   3.000000E+01   3.000000E+01   3.000000E+01   3.000000E+01
   3.000000E+01   3.000000E+01   3.000000E+01   3.000000E+01   3.000000E+01   3.000000E+01   3.000000E+01   3.000000E+01   3.000000E+01   3.000000E+01   3.000000E+01   3.000000E+01   3.000000E+01   3.000000E+01   3.000000E+01   3.000000E+01   3.000000E+01   3.000000E+01   3.000000E+01   3.000000E+01   3.000000E+01   3.000000E+01   3.000000E+01   3.000000E+01   3.000000E+01
   3.000000E+01   3.000000E+01   3.000000E+01   3.000000E+01   3.000000E+01   3.000000E+01   3.000000E+01   3.000000E+01   3.000000E+01   3.000000E+01   3.000000E+01   3.000000E+01   3.000000E+01   3.000000E+01   3.000000E+01   3.000000E+01   3.000000E+01   3.000000E+01   3.000000E+01   3.000000E+01   3.000000E+01   3.000000E+01   3.000000E+01   3.000000E+01   3.000000E+01
   3.000000E+01   3.000000E+01   3.000000E+01   3.000000E+01   3.000000E+01   3.000000E+01   3.000000E+01   3.000000E+01   3.000000E+01   3.000000E+01   3.000000E+01   3.000000E+01   3.000000E+01   3.000000E+01   3.000000E+01   3.000000E+01   3.000000E+01   3.000000E+01   3.000000E+01   3.000000E+01   3.000000E+01   3.000000E+01   3.000000E+01   3.000000E+01   3.000000E+01
   3.000000E+01   3.000000E+01   3.000000E+01   3.000000E+01   3.000000E+01   3.000000E+01   3.000000E+01   3.000000E+01   3.000000E+01   3.000000E+01   3.000000E+01   3.000000E+01   3.000000E+01   3.000000E+01   3.000000E+01   3.000000E+01   3.000000E+01   3.000000E+01   3.000000E+01   3.000000E+01   3.000000E+01   3.000000E+01   3.000000E+01   3.000000E+01   3.000000E+01
   3.000000E+01   3.000000E+01   3.000000E+01   3.000000E+01   3.000000E+01   3.000000E+01   3.000000E+01   3.000000E+01   3.000000E+01   3.000000E+01   3.000000E+01   3.000000E+01   3.000000E+01   3.000000E+01   3.000000E+01   3.000000E+01   3.000000E+01   3.000000E+01   3.000000E+01   3.000000E+01   3.000000E+01   3.000000E+01   3.000000E+01   3.000000E+01   3.000000E+01
   3.000000E+01   3.000000E+01   3.000000E+01   3.000000E+01   3.000000E+01   3.000000E+01   3.000000E+01   3.000000E+01   3.000000E+01   3.000000E+01   3.000000E+01   3.000000E+01   3.000000E+01   3.000000E+01   3.000000E+01   3.000000E+01   3.000000E+01   3.000000E+01   3.000000E+01   3.000000E+01   3.000000E+01   3.000000E+01   3.000000E+01   3.000000E+01   3.000000E+01
   3.000000E+01   3.000000E+01   3.000000E+01   3.000000E+01   3.000000E+01   3.000000E+01   3.000000E+01   3.000000E+01   3.000000E+01   3.000000E+01   3.000000E+01   3.000000E+01   3.000000E+01   3.000000E+01   3.000000E+01   3.000000E+01   3.000000E+01   3.000000E+01   3.000000E+01   3.000000E+01   3.000000E+01   3.000000E+01   3.000000E+01   3.000000E+01   3.000000E+01
   3.000000E+01   3.000000E+01   3.000000E+01   3.000000E+01   3.000000E+01   3.000000E+01   3.000000E+01   3.000000E+01   3.000000E+01   3.000000E+01   3.000000E+01   3.000000E+01   3.000000E+01   3.000000E+01   3.000000E+01   3.000000E+01   3.000000E+01   3.000000E+01   3.000000E+01   3.000000E+01   3.000000E+01   3.000000E+01   3.000000E+01   3.000000E+01   3.000000E+01
   3.000000E+01   3.000000E+01   3.000000E+01   3.000000E+01   3.000000E+01   3.000000E+01   3.000000E+01   3.000000E+01   3.000000E+01   3.000000E+01   3.000000E+01   3.000000E+01   3.000000E+01   3.000000E+01   3.000000E+01   3.000000E+01   3.000000E+01   3.000000E+01   3.000000E+01   3.000000E+01   3.000000E+01   3.000000E+01   3.000000E+01   3.000000E+01   3.000000E+01
