# PCG package for  MODFLOW-2005, generated by Flopy.
25 50 1 0
0.0001 0.0001 1.0 0 0 2 1.0 
