# LMT6 package for  MODFLOW-2005, generated by Flopy.
OUTPUT_FILE_NAME Ayvaz.hff
OUTPUT_FILE_UNIT            333
OUTPUT_FILE_HEADER standard
OUTPUT_FILE_FORMAT unformatted
