# DIS package for  MODFLOW-2005, generated by Flopy.
         1        15        25         1         4         2
  0
CONSTANT    1.000000E+02                           #delr                          
CONSTANT    1.000000E+02                           #delc                          
CONSTANT    3.000000E+01                           #model_top                     
CONSTANT    0.000000E+00                           #botm layer 1                  
      0.000000             1  1.000000  SS 
