# Name file for MODFLOW-2005, generated by Flopy version 3.2.12.
#xll:0; yll:0; rotation:0; proj4_str:None; units:meters; lenuni:2;  ;start_datetime:1-1-1970
LIST               2  Ayvaz_flow.list
DIS               11  Ayvaz_flow.dis 
LPF               15  Ayvaz_flow.lpf 
BAS6              13  Ayvaz_flow.bas 
CHD               24  Ayvaz_flow.chd 
WEL               20  Ayvaz_flow.wel 
LMT6              30  Ayvaz_flow.lmt6 
PCG               27  Ayvaz_flow.pcg 
OC                14  Ayvaz_flow.oc 
DATA(BINARY)      51  Ayvaz_flow.hds REPLACE
