# OC package for MODFLOW-2005 generated by Flopy 3.9.2
HEAD PRINT FORMAT   0
HEAD SAVE UNIT    51
DRAWDOWN PRINT FORMAT   0
COMPACT BUDGET AUX

period 1 step 1 
  save head

period 1 step 2 
  save head

period 2 step 1 
  save head

period 2 step 2 
  save head

period 3 step 1 
  save head

period 3 step 2 
  save head

period 4 step 1 
  save head

period 4 step 2 
  save head

period 5 step 1 
  save head

period 5 step 2 
  save head

period 6 step 1 
  save head

period 6 step 2 
  save head

period 7 step 1 
  save head

period 7 step 2 
  save head

period 8 step 1 
  save head

period 8 step 2 
  save head

period 9 step 1 
  save head

period 9 step 2 
  save head

period 10 step 1 
  save head

period 10 step 2 
  save head

period 11 step 1 
  save head

period 11 step 2 
  save head

period 12 step 1 
  save head

period 12 step 2 
  save head

period 13 step 1 
  save head

period 13 step 2 
  save head

period 14 step 1 
  save head

period 14 step 2 
  save head

period 15 step 1 
  save head

period 15 step 2 
  save head

period 16 step 1 
  save head

period 16 step 2 
  save head

period 17 step 1 
  save head

period 17 step 2 
  save head

period 18 step 1 
  save head

period 18 step 2 
  save head

period 19 step 1 
  save head

period 19 step 2 
  save head

period 20 step 1 
  save head

period 20 step 2 
  save head

period 21 step 1 
  save head

period 21 step 2 
  save head

period 22 step 1 
  save head

period 22 step 2 
  save head

period 23 step 1 
  save head

period 23 step 2 
  save head

period 24 step 1 
  save head

period 24 step 2 
  save head

period 25 step 1 
  save head

period 25 step 2 
  save head

period 26 step 1 
  save head

period 26 step 2 
  save head

period 27 step 1 
  save head

period 27 step 2 
  save head

period 28 step 1 
  save head

period 28 step 2 
  save head

period 29 step 1 
  save head

period 29 step 2 
  save head

period 30 step 1 
  save head

period 30 step 2 
  save head

period 31 step 1 
  save head

period 31 step 2 
  save head

period 32 step 1 
  save head

period 32 step 2 
  save head

period 33 step 1 
  save head

period 33 step 2 
  save head

period 34 step 1 
  save head

period 34 step 2 
  save head

period 35 step 1 
  save head

period 35 step 2 
  save head

period 36 step 1 
  save head

period 36 step 2 
  save head

period 37 step 1 
  save head

period 37 step 2 
  save head

period 38 step 1 
  save head

period 38 step 2 
  save head

period 39 step 1 
  save head

period 39 step 2 
  save head

period 40 step 1 
  save head

period 40 step 2 
  save head

period 41 step 1 
  save head

period 41 step 2 
  save head

period 42 step 1 
  save head

period 42 step 2 
  save head

period 43 step 1 
  save head

period 43 step 2 
  save head

period 44 step 1 
  save head

period 44 step 2 
  save head

period 45 step 1 
  save head

period 45 step 2 
  save head

period 46 step 1 
  save head

period 46 step 2 
  save head

period 47 step 1 
  save head

period 47 step 2 
  save head

period 48 step 1 
  save head

period 48 step 2 
  save head

period 49 step 1 
  save head

period 49 step 2 
  save head

period 50 step 1 
  save head

period 50 step 2 
  save head

period 51 step 1 
  save head

period 51 step 2 
  save head

period 52 step 1 
  save head

period 52 step 2 
  save head

period 53 step 1 
  save head

period 53 step 2 
  save head

period 54 step 1 
  save head

period 54 step 2 
  save head

period 55 step 1 
  save head

period 55 step 2 
  save head

period 56 step 1 
  save head

period 56 step 2 
  save head

period 57 step 1 
  save head

period 57 step 2 
  save head

period 58 step 1 
  save head

period 58 step 2 
  save head

period 59 step 1 
  save head

period 59 step 2 
  save head

period 60 step 1 
  save head

period 60 step 2 
  save head

period 61 step 1 
  save head

period 61 step 2 
  save head

period 62 step 1 
  save head

period 62 step 2 
  save head

period 63 step 1 
  save head

period 63 step 2 
  save head

period 64 step 1 
  save head

period 64 step 2 
  save head

period 65 step 1 
  save head

period 65 step 2 
  save head

period 66 step 1 
  save head

period 66 step 2 
  save head

period 67 step 1 
  save head

period 67 step 2 
  save head

period 68 step 1 
  save head

period 68 step 2 
  save head

period 69 step 1 
  save head

period 69 step 2 
  save head

period 70 step 1 
  save head

period 70 step 2 
  save head

period 71 step 1 
  save head

period 71 step 2 
  save head

period 72 step 1 
  save head

period 72 step 2 
  save head

period 73 step 1 
  save head

period 73 step 2 
  save head

period 74 step 1 
  save head

period 74 step 2 
  save head

period 75 step 1 
  save head

period 75 step 2 
  save head

period 76 step 1 
  save head

period 76 step 2 
  save head

period 77 step 1 
  save head

period 77 step 2 
  save head

period 78 step 1 
  save head

period 78 step 2 
  save head

period 79 step 1 
  save head

period 79 step 2 
  save head

period 80 step 1 
  save head

period 80 step 2 
  save head

period 81 step 1 
  save head

period 81 step 2 
  save head

period 82 step 1 
  save head

period 82 step 2 
  save head

period 83 step 1 
  save head

period 83 step 2 
  save head

period 84 step 1 
  save head

period 84 step 2 
  save head

period 85 step 1 
  save head

period 85 step 2 
  save head

period 86 step 1 
  save head

period 86 step 2 
  save head

period 87 step 1 
  save head

period 87 step 2 
  save head

period 88 step 1 
  save head

period 88 step 2 
  save head

period 89 step 1 
  save head

period 89 step 2 
  save head

period 90 step 1 
  save head

period 90 step 2 
  save head

period 91 step 1 
  save head

period 91 step 2 
  save head

period 92 step 1 
  save head

period 92 step 2 
  save head

period 93 step 1 
  save head

period 93 step 2 
  save head

period 94 step 1 
  save head

period 94 step 2 
  save head

period 95 step 1 
  save head

period 95 step 2 
  save head

period 96 step 1 
  save head

period 96 step 2 
  save head

period 97 step 1 
  save head

period 97 step 2 
  save head

period 98 step 1 
  save head

period 98 step 2 
  save head

period 99 step 1 
  save head

period 99 step 2 
  save head

period 100 step 1 
  save head

period 100 step 2 
  save head

period 101 step 1 
  save head

period 101 step 2 
  save head

