# CHD package for MODFLOW-2005 generated by Flopy 3.9.2
       100
       100         0 # stress period 1
         1         1         1            24.0            24.0
         1         2         1            24.0            24.0
         1         3         1            24.0            24.0
         1         4         1            24.0            24.0
         1         5         1            24.0            24.0
         1         6         1            24.0            24.0
         1         7         1            24.0            24.0
         1         8         1            24.0            24.0
         1         9         1            24.0            24.0
         1        10         1            24.0            24.0
         1        11         1            24.0            24.0
         1        12         1            24.0            24.0
         1        13         1            24.0            24.0
         1        14         1            24.0            24.0
         1        15         1            24.0            24.0
         1        16         1            24.0            24.0
         1        17         1            24.0            24.0
         1        18         1            24.0            24.0
         1        19         1            24.0            24.0
         1        20         1            24.0            24.0
         1        21         1            24.0            24.0
         1        22         1            24.0            24.0
         1        23         1            24.0            24.0
         1        24         1            24.0            24.0
         1        25         1            24.0            24.0
         1        26         1            24.0            24.0
         1        27         1            24.0            24.0
         1        28         1            24.0            24.0
         1        29         1            24.0            24.0
         1        30         1            24.0            24.0
         1        31         1            24.0            24.0
         1        32         1            24.0            24.0
         1        33         1            24.0            24.0
         1        34         1            24.0            24.0
         1        35         1            24.0            24.0
         1        36         1            24.0            24.0
         1        37         1            24.0            24.0
         1        38         1            24.0            24.0
         1        39         1            24.0            24.0
         1        40         1            24.0            24.0
         1        41         1            24.0            24.0
         1        42         1            24.0            24.0
         1        43         1            24.0            24.0
         1        44         1            24.0            24.0
         1        45         1            24.0            24.0
         1        46         1            24.0            24.0
         1        47         1            24.0            24.0
         1        48         1            24.0            24.0
         1        49         1            24.0            24.0
         1        50         1            24.0            24.0
         1         1       150            21.0            21.0
         1         2       150            21.0            21.0
         1         3       150            21.0            21.0
         1         4       150            21.0            21.0
         1         5       150            21.0            21.0
         1         6       150            21.0            21.0
         1         7       150            21.0            21.0
         1         8       150            21.0            21.0
         1         9       150            21.0            21.0
         1        10       150            21.0            21.0
         1        11       150            21.0            21.0
         1        12       150            21.0            21.0
         1        13       150            21.0            21.0
         1        14       150            21.0            21.0
         1        15       150            21.0            21.0
         1        16       150            21.0            21.0
         1        17       150            21.0            21.0
         1        18       150            21.0            21.0
         1        19       150            21.0            21.0
         1        20       150            21.0            21.0
         1        21       150            21.0            21.0
         1        22       150            21.0            21.0
         1        23       150            21.0            21.0
         1        24       150            21.0            21.0
         1        25       150            21.0            21.0
         1        26       150            21.0            21.0
         1        27       150            21.0            21.0
         1        28       150            21.0            21.0
         1        29       150            21.0            21.0
         1        30       150            21.0            21.0
         1        31       150            21.0            21.0
         1        32       150            21.0            21.0
         1        33       150            21.0            21.0
         1        34       150            21.0            21.0
         1        35       150            21.0            21.0
         1        36       150            21.0            21.0
         1        37       150            21.0            21.0
         1        38       150            21.0            21.0
         1        39       150            21.0            21.0
         1        40       150            21.0            21.0
         1        41       150            21.0            21.0
         1        42       150            21.0            21.0
         1        43       150            21.0            21.0
         1        44       150            21.0            21.0
         1        45       150            21.0            21.0
         1        46       150            21.0            21.0
         1        47       150            21.0            21.0
         1        48       150            21.0            21.0
         1        49       150            21.0            21.0
         1        50       150            21.0            21.0
        -1         0 # stress period 2
        -1         0 # stress period 3
        -1         0 # stress period 4
        -1         0 # stress period 5
        -1         0 # stress period 6
        -1         0 # stress period 7
        -1         0 # stress period 8
        -1         0 # stress period 9
        -1         0 # stress period 10
        -1         0 # stress period 11
        -1         0 # stress period 12
        -1         0 # stress period 13
        -1         0 # stress period 14
        -1         0 # stress period 15
        -1         0 # stress period 16
        -1         0 # stress period 17
        -1         0 # stress period 18
        -1         0 # stress period 19
        -1         0 # stress period 20
        -1         0 # stress period 21
        -1         0 # stress period 22
        -1         0 # stress period 23
        -1         0 # stress period 24
        -1         0 # stress period 25
        -1         0 # stress period 26
        -1         0 # stress period 27
        -1         0 # stress period 28
        -1         0 # stress period 29
        -1         0 # stress period 30
        -1         0 # stress period 31
        -1         0 # stress period 32
        -1         0 # stress period 33
        -1         0 # stress period 34
        -1         0 # stress period 35
        -1         0 # stress period 36
        -1         0 # stress period 37
        -1         0 # stress period 38
        -1         0 # stress period 39
        -1         0 # stress period 40
        -1         0 # stress period 41
        -1         0 # stress period 42
        -1         0 # stress period 43
        -1         0 # stress period 44
        -1         0 # stress period 45
        -1         0 # stress period 46
        -1         0 # stress period 47
        -1         0 # stress period 48
        -1         0 # stress period 49
        -1         0 # stress period 50
        -1         0 # stress period 51
        -1         0 # stress period 52
        -1         0 # stress period 53
        -1         0 # stress period 54
        -1         0 # stress period 55
        -1         0 # stress period 56
        -1         0 # stress period 57
        -1         0 # stress period 58
        -1         0 # stress period 59
        -1         0 # stress period 60
        -1         0 # stress period 61
        -1         0 # stress period 62
        -1         0 # stress period 63
        -1         0 # stress period 64
        -1         0 # stress period 65
        -1         0 # stress period 66
        -1         0 # stress period 67
        -1         0 # stress period 68
        -1         0 # stress period 69
        -1         0 # stress period 70
        -1         0 # stress period 71
        -1         0 # stress period 72
        -1         0 # stress period 73
        -1         0 # stress period 74
        -1         0 # stress period 75
        -1         0 # stress period 76
        -1         0 # stress period 77
        -1         0 # stress period 78
        -1         0 # stress period 79
        -1         0 # stress period 80
        -1         0 # stress period 81
        -1         0 # stress period 82
        -1         0 # stress period 83
        -1         0 # stress period 84
        -1         0 # stress period 85
        -1         0 # stress period 86
        -1         0 # stress period 87
        -1         0 # stress period 88
        -1         0 # stress period 89
        -1         0 # stress period 90
        -1         0 # stress period 91
        -1         0 # stress period 92
        -1         0 # stress period 93
        -1         0 # stress period 94
        -1         0 # stress period 95
        -1         0 # stress period 96
        -1         0 # stress period 97
        -1         0 # stress period 98
        -1         0 # stress period 99
        -1         0 # stress period 100
        -1         0 # stress period 101
