# WEL package for MODFLOW-2005 generated by Flopy 3.9.2
         1         0 
         1         0 # stress period 1
         1        28        25             0.0
         1         0 # stress period 2
         1        28        25           0.001
         1         0 # stress period 3
         1        28        25           0.001
         1         0 # stress period 4
         1        28        25           0.001
         1         0 # stress period 5
         1        28        25           0.001
         1         0 # stress period 6
         1        28        25           0.001
         1         0 # stress period 7
         1        28        25           0.001
         1         0 # stress period 8
         1        28        25           0.001
         1         0 # stress period 9
         1        28        25           0.001
         1         0 # stress period 10
         1        28        25           0.001
         1         0 # stress period 11
         1        28        25           0.001
         1         0 # stress period 12
         1        28        25           0.001
         1         0 # stress period 13
         1        28        25           0.001
         1         0 # stress period 14
         1        28        25           0.001
         1         0 # stress period 15
         1        28        25           0.001
         1         0 # stress period 16
         1        28        25           0.001
         1         0 # stress period 17
         1        28        25           0.001
         1         0 # stress period 18
         1        28        25           0.001
         1         0 # stress period 19
         1        28        25           0.001
         1         0 # stress period 20
         1        28        25           0.001
         1         0 # stress period 21
         1        28        25           0.001
         1         0 # stress period 22
         1        28        25           0.001
         1         0 # stress period 23
         1        28        25           0.001
         1         0 # stress period 24
         1        28        25           0.001
         1         0 # stress period 25
         1        28        25           0.001
         1         0 # stress period 26
         1        28        25           0.001
         1         0 # stress period 27
         1        28        25           0.001
         1         0 # stress period 28
         1        28        25           0.001
         1         0 # stress period 29
         1        28        25           0.001
         1         0 # stress period 30
         1        28        25           0.001
         1         0 # stress period 31
         1        28        25           0.001
         1         0 # stress period 32
         1        28        25           0.001
         1         0 # stress period 33
         1        28        25           0.001
         1         0 # stress period 34
         1        28        25           0.001
         1         0 # stress period 35
         1        28        25           0.001
         1         0 # stress period 36
         1        28        25           0.001
         1         0 # stress period 37
         1        28        25           0.001
         1         0 # stress period 38
         1        28        25           0.001
         1         0 # stress period 39
         1        28        25           0.001
         1         0 # stress period 40
         1        28        25           0.001
         1         0 # stress period 41
         1        28        25           0.001
         1         0 # stress period 42
         1        28        25           0.001
         1         0 # stress period 43
         1        28        25           0.001
         1         0 # stress period 44
         1        28        25           0.001
         1         0 # stress period 45
         1        28        25           0.001
         1         0 # stress period 46
         1        28        25           0.001
         1         0 # stress period 47
         1        28        25           0.001
         1         0 # stress period 48
         1        28        25           0.001
         1         0 # stress period 49
         1        28        25           0.001
         1         0 # stress period 50
         1        28        25           0.001
         1         0 # stress period 51
         1        28        25           0.001
         1         0 # stress period 52
         1        28        25           0.001
         1         0 # stress period 53
         1        28        25           0.001
         1         0 # stress period 54
         1        28        25           0.001
         1         0 # stress period 55
         1        28        25           0.001
         1         0 # stress period 56
         1        28        25           0.001
         1         0 # stress period 57
         1        28        25           0.001
         1         0 # stress period 58
         1        28        25           0.001
         1         0 # stress period 59
         1        28        25           0.001
         1         0 # stress period 60
         1        28        25           0.001
         1         0 # stress period 61
         1        28        25           0.001
         1         0 # stress period 62
         1        28        25           0.001
         1         0 # stress period 63
         1        28        25           0.001
         1         0 # stress period 64
         1        28        25           0.001
         1         0 # stress period 65
         1        28        25           0.001
         1         0 # stress period 66
         1        28        25           0.001
         1         0 # stress period 67
         1        28        25           0.001
         1         0 # stress period 68
         1        28        25           0.001
         1         0 # stress period 69
         1        28        25           0.001
         1         0 # stress period 70
         1        28        25           0.001
         1         0 # stress period 71
         1        28        25           0.001
         1         0 # stress period 72
         1        28        25           0.001
         1         0 # stress period 73
         1        28        25           0.001
         1         0 # stress period 74
         1        28        25           0.001
         1         0 # stress period 75
         1        28        25           0.001
         1         0 # stress period 76
         1        28        25           0.001
         1         0 # stress period 77
         1        28        25           0.001
         1         0 # stress period 78
         1        28        25           0.001
         1         0 # stress period 79
         1        28        25           0.001
         1         0 # stress period 80
         1        28        25           0.001
         1         0 # stress period 81
         1        28        25           0.001
         1         0 # stress period 82
         1        28        25           0.001
         1         0 # stress period 83
         1        28        25           0.001
         1         0 # stress period 84
         1        28        25           0.001
         1         0 # stress period 85
         1        28        25           0.001
         1         0 # stress period 86
         1        28        25           0.001
         1         0 # stress period 87
         1        28        25           0.001
         1         0 # stress period 88
         1        28        25           0.001
         1         0 # stress period 89
         1        28        25           0.001
         1         0 # stress period 90
         1        28        25           0.001
         1         0 # stress period 91
         1        28        25           0.001
         1         0 # stress period 92
         1        28        25           0.001
         1         0 # stress period 93
         1        28        25           0.001
         1         0 # stress period 94
         1        28        25           0.001
         1         0 # stress period 95
         1        28        25           0.001
         1         0 # stress period 96
         1        28        25           0.001
         1         0 # stress period 97
         1        28        25           0.001
         1         0 # stress period 98
         1        28        25           0.001
         1         0 # stress period 99
         1        28        25           0.001
         1         0 # stress period 100
         1        28        25           0.001
         1         0 # stress period 101
         1        28        25           0.001
         1         0 # stress period 102
         1        28        25           0.001
