## BTN for MT3DMS, generated by Flopy.
##
         1        50       150       101         1         1
D   M   MG  
T T T F T 
 0
         0         2                           -1 #delr
         0         2                           -1 #delc
         0        10                           -1 #htop
        31         1         (150E15.6)        -1 #dz layer 1
   1.000000E+01   1.000000E+01   1.000000E+01   1.000000E+01   1.000000E+01   1.000000E+01   1.000000E+01   1.000000E+01   1.000000E+01   1.000000E+01   1.000000E+01   1.000000E+01   1.000000E+01   1.000000E+01   1.000000E+01   1.000000E+01   1.000000E+01   1.000000E+01   1.000000E+01   1.000000E+01   1.000000E+01   1.000000E+01   1.000000E+01   1.000000E+01   1.000000E+01   1.000000E+01   1.000000E+01   1.000000E+01   1.000000E+01   1.000000E+01   1.000000E+01   1.000000E+01   1.000000E+01   1.000000E+01   1.000000E+01   1.000000E+01   1.000000E+01   1.000000E+01   1.000000E+01   1.000000E+01   1.000000E+01   1.000000E+01   1.000000E+01   1.000000E+01   1.000000E+01   1.000000E+01   1.000000E+01   1.000000E+01   1.000000E+01   1.000000E+01   1.000000E+01   1.000000E+01   1.000000E+01   1.000000E+01   1.000000E+01   1.000000E+01   1.000000E+01   1.000000E+01   1.000000E+01   1.000000E+01   1.000000E+01   1.000000E+01   1.000000E+01   1.000000E+01   1.000000E+01   1.000000E+01   1.000000E+01   1.000000E+01   1.000000E+01   1.000000E+01   1.000000E+01   1.000000E+01   1.000000E+01   1.000000E+01   1.000000E+01   1.000000E+01   1.000000E+01   1.000000E+01   1.000000E+01   1.000000E+01   1.000000E+01   1.000000E+01   1.000000E+01   1.000000E+01   1.000000E+01   1.000000E+01   1.000000E+01   1.000000E+01   1.000000E+01   1.000000E+01   1.000000E+01   1.000000E+01   1.000000E+01   1.000000E+01   1.000000E+01   1.000000E+01   1.000000E+01   1.000000E+01   1.000000E+01   1.000000E+01   1.000000E+01   1.000000E+01   1.000000E+01   1.000000E+01   1.000000E+01   1.000000E+01   1.000000E+01   1.000000E+01   1.000000E+01   1.000000E+01   1.000000E+01   1.000000E+01   1.000000E+01   1.000000E+01   1.000000E+01   1.000000E+01   1.000000E+01   1.000000E+01   1.000000E+01   1.000000E+01   1.000000E+01   1.000000E+01   1.000000E+01   1.000000E+01   1.000000E+01   1.000000E+01   1.000000E+01   1.000000E+01   1.000000E+01   1.000000E+01   1.000000E+01   1.000000E+01   1.000000E+01   1.000000E+01   1.000000E+01   1.000000E+01   1.000000E+01   1.000000E+01   1.000000E+01   1.000000E+01   1.000000E+01   1.000000E+01   1.000000E+01   1.000000E+01   1.000000E+01   1.000000E+01   1.000000E+01   1.000000E+01   1.000000E+01   1.000000E+01
   1.000000E+01   1.000000E+01   1.000000E+01   1.000000E+01   1.000000E+01   1.000000E+01   1.000000E+01   1.000000E+01   1.000000E+01   1.000000E+01   1.000000E+01   1.000000E+01   1.000000E+01   1.000000E+01   1.000000E+01   1.000000E+01   1.000000E+01   1.000000E+01   1.000000E+01   1.000000E+01   1.000000E+01   1.000000E+01   1.000000E+01   1.000000E+01   1.000000E+01   1.000000E+01   1.000000E+01   1.000000E+01   1.000000E+01   1.000000E+01   1.000000E+01   1.000000E+01   1.000000E+01   1.000000E+01   1.000000E+01   1.000000E+01   1.000000E+01   1.000000E+01   1.000000E+01   1.000000E+01   1.000000E+01   1.000000E+01   1.000000E+01   1.000000E+01   1.000000E+01   1.000000E+01   1.000000E+01   1.000000E+01   1.000000E+01   1.000000E+01   1.000000E+01   1.000000E+01   1.000000E+01   1.000000E+01   1.000000E+01   1.000000E+01   1.000000E+01   1.000000E+01   1.000000E+01   1.000000E+01   1.000000E+01   1.000000E+01   1.000000E+01   1.000000E+01   1.000000E+01   1.000000E+01   1.000000E+01   1.000000E+01   1.000000E+01   1.000000E+01   1.000000E+01   1.000000E+01   1.000000E+01   1.000000E+01   1.000000E+01   1.000000E+01   1.000000E+01   1.000000E+01   1.000000E+01   1.000000E+01   1.000000E+01   1.000000E+01   1.000000E+01   1.000000E+01   1.000000E+01   1.000000E+01   1.000000E+01   1.000000E+01   1.000000E+01   1.000000E+01   1.000000E+01   1.000000E+01   1.000000E+01   1.000000E+01   1.000000E+01   1.000000E+01   1.000000E+01   1.000000E+01   1.000000E+01   1.000000E+01   1.000000E+01   1.000000E+01   1.000000E+01   1.000000E+01   1.000000E+01   1.000000E+01   1.000000E+01   1.000000E+01   1.000000E+01   1.000000E+01   1.000000E+01   1.000000E+01   1.000000E+01   1.000000E+01   1.000000E+01   1.000000E+01   1.000000E+01   1.000000E+01   1.000000E+01   1.000000E+01   1.000000E+01   1.000000E+01   1.000000E+01   1.000000E+01   1.000000E+01   1.000000E+01   1.000000E+01   1.000000E+01   1.000000E+01   1.000000E+01   1.000000E+01   1.000000E+01   1.000000E+01   1.000000E+01   1.000000E+01   1.000000E+01   1.000000E+01   1.000000E+01   1.000000E+01   1.000000E+01   1.000000E+01   1.000000E+01   1.000000E+01   1.000000E+01   1.000000E+01   1.000000E+01   1.000000E+01   1.000000E+01   1.000000E+01   1.000000E+01
   1.000000E+01   1.000000E+01   1.000000E+01   1.000000E+01   1.000000E+01   1.000000E+01   1.000000E+01   1.000000E+01   1.000000E+01   1.000000E+01   1.000000E+01   1.000000E+01   1.000000E+01   1.000000E+01   1.000000E+01   1.000000E+01   1.000000E+01   1.000000E+01   1.000000E+01   1.000000E+01   1.000000E+01   1.000000E+01   1.000000E+01   1.000000E+01   1.000000E+01   1.000000E+01   1.000000E+01   1.000000E+01   1.000000E+01   1.000000E+01   1.000000E+01   1.000000E+01   1.000000E+01   1.000000E+01   1.000000E+01   1.000000E+01   1.000000E+01   1.000000E+01   1.000000E+01   1.000000E+01   1.000000E+01   1.000000E+01   1.000000E+01   1.000000E+01   1.000000E+01   1.000000E+01   1.000000E+01   1.000000E+01   1.000000E+01   1.000000E+01   1.000000E+01   1.000000E+01   1.000000E+01   1.000000E+01   1.000000E+01   1.000000E+01   1.000000E+01   1.000000E+01   1.000000E+01   1.000000E+01   1.000000E+01   1.000000E+01   1.000000E+01   1.000000E+01   1.000000E+01   1.000000E+01   1.000000E+01   1.000000E+01   1.000000E+01   1.000000E+01   1.000000E+01   1.000000E+01   1.000000E+01   1.000000E+01   1.000000E+01   1.000000E+01   1.000000E+01   1.000000E+01   1.000000E+01   1.000000E+01   1.000000E+01   1.000000E+01   1.000000E+01   1.000000E+01   1.000000E+01   1.000000E+01   1.000000E+01   1.000000E+01   1.000000E+01   1.000000E+01   1.000000E+01   1.000000E+01   1.000000E+01   1.000000E+01   1.000000E+01   1.000000E+01   1.000000E+01   1.000000E+01   1.000000E+01   1.000000E+01   1.000000E+01   1.000000E+01   1.000000E+01   1.000000E+01   1.000000E+01   1.000000E+01   1.000000E+01   1.000000E+01   1.000000E+01   1.000000E+01   1.000000E+01   1.000000E+01   1.000000E+01   1.000000E+01   1.000000E+01   1.000000E+01   1.000000E+01   1.000000E+01   1.000000E+01   1.000000E+01   1.000000E+01   1.000000E+01   1.000000E+01   1.000000E+01   1.000000E+01   1.000000E+01   1.000000E+01   1.000000E+01   1.000000E+01   1.000000E+01   1.000000E+01   1.000000E+01   1.000000E+01   1.000000E+01   1.000000E+01   1.000000E+01   1.000000E+01   1.000000E+01   1.000000E+01   1.000000E+01   1.000000E+01   1.000000E+01   1.000000E+01   1.000000E+01   1.000000E+01   1.000000E+01   1.000000E+01   1.000000E+01   1.000000E+01   1.000000E+01
   1.000000E+01   1.000000E+01   1.000000E+01   1.000000E+01   1.000000E+01   1.000000E+01   1.000000E+01   1.000000E+01   1.000000E+01   1.000000E+01   1.000000E+01   1.000000E+01   1.000000E+01   1.000000E+01   1.000000E+01   1.000000E+01   1.000000E+01   1.000000E+01   1.000000E+01   1.000000E+01   1.000000E+01   1.000000E+01   1.000000E+01   1.000000E+01   1.000000E+01   1.000000E+01   1.000000E+01   1.000000E+01   1.000000E+01   1.000000E+01   1.000000E+01   1.000000E+01   1.000000E+01   1.000000E+01   1.000000E+01   1.000000E+01   1.000000E+01   1.000000E+01   1.000000E+01   1.000000E+01   1.000000E+01   1.000000E+01   1.000000E+01   1.000000E+01   1.000000E+01   1.000000E+01   1.000000E+01   1.000000E+01   1.000000E+01   1.000000E+01   1.000000E+01   1.000000E+01   1.000000E+01   1.000000E+01   1.000000E+01   1.000000E+01   1.000000E+01   1.000000E+01   1.000000E+01   1.000000E+01   1.000000E+01   1.000000E+01   1.000000E+01   1.000000E+01   1.000000E+01   1.000000E+01   1.000000E+01   1.000000E+01   1.000000E+01   1.000000E+01   1.000000E+01   1.000000E+01   1.000000E+01   1.000000E+01   1.000000E+01   1.000000E+01   1.000000E+01   1.000000E+01   1.000000E+01   1.000000E+01   1.000000E+01   1.000000E+01   1.000000E+01   1.000000E+01   1.000000E+01   1.000000E+01   1.000000E+01   1.000000E+01   1.000000E+01   1.000000E+01   1.000000E+01   1.000000E+01   1.000000E+01   1.000000E+01   1.000000E+01   1.000000E+01   1.000000E+01   1.000000E+01   1.000000E+01   1.000000E+01   1.000000E+01   1.000000E+01   1.000000E+01   1.000000E+01   1.000000E+01   1.000000E+01   1.000000E+01   1.000000E+01   1.000000E+01   1.000000E+01   1.000000E+01   1.000000E+01   1.000000E+01   1.000000E+01   1.000000E+01   1.000000E+01   1.000000E+01   1.000000E+01   1.000000E+01   1.000000E+01   1.000000E+01   1.000000E+01   1.000000E+01   1.000000E+01   1.000000E+01   1.000000E+01   1.000000E+01   1.000000E+01   1.000000E+01   1.000000E+01   1.000000E+01   1.000000E+01   1.000000E+01   1.000000E+01   1.000000E+01   1.000000E+01   1.000000E+01   1.000000E+01   1.000000E+01   1.000000E+01   1.000000E+01   1.000000E+01   1.000000E+01   1.000000E+01   1.000000E+01   1.000000E+01   1.000000E+01   1.000000E+01   1.000000E+01   1.000000E+01
   1.000000E+01   1.000000E+01   1.000000E+01   1.000000E+01   1.000000E+01   1.000000E+01   1.000000E+01   1.000000E+01   1.000000E+01   1.000000E+01   1.000000E+01   1.000000E+01   1.000000E+01   1.000000E+01   1.000000E+01   1.000000E+01   1.000000E+01   1.000000E+01   1.000000E+01   1.000000E+01   1.000000E+01   1.000000E+01   1.000000E+01   1.000000E+01   1.000000E+01   1.000000E+01   1.000000E+01   1.000000E+01   1.000000E+01   1.000000E+01   1.000000E+01   1.000000E+01   1.000000E+01   1.000000E+01   1.000000E+01   1.000000E+01   1.000000E+01   1.000000E+01   1.000000E+01   1.000000E+01   1.000000E+01   1.000000E+01   1.000000E+01   1.000000E+01   1.000000E+01   1.000000E+01   1.000000E+01   1.000000E+01   1.000000E+01   1.000000E+01   1.000000E+01   1.000000E+01   1.000000E+01   1.000000E+01   1.000000E+01   1.000000E+01   1.000000E+01   1.000000E+01   1.000000E+01   1.000000E+01   1.000000E+01   1.000000E+01   1.000000E+01   1.000000E+01   1.000000E+01   1.000000E+01   1.000000E+01   1.000000E+01   1.000000E+01   1.000000E+01   1.000000E+01   1.000000E+01   1.000000E+01   1.000000E+01   1.000000E+01   1.000000E+01   1.000000E+01   1.000000E+01   1.000000E+01   1.000000E+01   1.000000E+01   1.000000E+01   1.000000E+01   1.000000E+01   1.000000E+01   1.000000E+01   1.000000E+01   1.000000E+01   1.000000E+01   1.000000E+01   1.000000E+01   1.000000E+01   1.000000E+01   1.000000E+01   1.000000E+01   1.000000E+01   1.000000E+01   1.000000E+01   1.000000E+01   1.000000E+01   1.000000E+01   1.000000E+01   1.000000E+01   1.000000E+01   1.000000E+01   1.000000E+01   1.000000E+01   1.000000E+01   1.000000E+01   1.000000E+01   1.000000E+01   1.000000E+01   1.000000E+01   1.000000E+01   1.000000E+01   1.000000E+01   1.000000E+01   1.000000E+01   1.000000E+01   1.000000E+01   1.000000E+01   1.000000E+01   1.000000E+01   1.000000E+01   1.000000E+01   1.000000E+01   1.000000E+01   1.000000E+01   1.000000E+01   1.000000E+01   1.000000E+01   1.000000E+01   1.000000E+01   1.000000E+01   1.000000E+01   1.000000E+01   1.000000E+01   1.000000E+01   1.000000E+01   1.000000E+01   1.000000E+01   1.000000E+01   1.000000E+01   1.000000E+01   1.000000E+01   1.000000E+01   1.000000E+01   1.000000E+01   1.000000E+01   1.000000E+01
   1.000000E+01   1.000000E+01   1.000000E+01   1.000000E+01   1.000000E+01   1.000000E+01   1.000000E+01   1.000000E+01   1.000000E+01   1.000000E+01   1.000000E+01   1.000000E+01   1.000000E+01   1.000000E+01   1.000000E+01   1.000000E+01   1.000000E+01   1.000000E+01   1.000000E+01   1.000000E+01   1.000000E+01   1.000000E+01   1.000000E+01   1.000000E+01   1.000000E+01   1.000000E+01   1.000000E+01   1.000000E+01   1.000000E+01   1.000000E+01   1.000000E+01   1.000000E+01   1.000000E+01   1.000000E+01   1.000000E+01   1.000000E+01   1.000000E+01   1.000000E+01   1.000000E+01   1.000000E+01   1.000000E+01   1.000000E+01   1.000000E+01   1.000000E+01   1.000000E+01   1.000000E+01   1.000000E+01   1.000000E+01   1.000000E+01   1.000000E+01   1.000000E+01   1.000000E+01   1.000000E+01   1.000000E+01   1.000000E+01   1.000000E+01   1.000000E+01   1.000000E+01   1.000000E+01   1.000000E+01   1.000000E+01   1.000000E+01   1.000000E+01   1.000000E+01   1.000000E+01   1.000000E+01   1.000000E+01   1.000000E+01   1.000000E+01   1.000000E+01   1.000000E+01   1.000000E+01   1.000000E+01   1.000000E+01   1.000000E+01   1.000000E+01   1.000000E+01   1.000000E+01   1.000000E+01   1.000000E+01   1.000000E+01   1.000000E+01   1.000000E+01   1.000000E+01   1.000000E+01   1.000000E+01   1.000000E+01   1.000000E+01   1.000000E+01   1.000000E+01   1.000000E+01   1.000000E+01   1.000000E+01   1.000000E+01   1.000000E+01   1.000000E+01   1.000000E+01   1.000000E+01   1.000000E+01   1.000000E+01   1.000000E+01   1.000000E+01   1.000000E+01   1.000000E+01   1.000000E+01   1.000000E+01   1.000000E+01   1.000000E+01   1.000000E+01   1.000000E+01   1.000000E+01   1.000000E+01   1.000000E+01   1.000000E+01   1.000000E+01   1.000000E+01   1.000000E+01   1.000000E+01   1.000000E+01   1.000000E+01   1.000000E+01   1.000000E+01   1.000000E+01   1.000000E+01   1.000000E+01   1.000000E+01   1.000000E+01   1.000000E+01   1.000000E+01   1.000000E+01   1.000000E+01   1.000000E+01   1.000000E+01   1.000000E+01   1.000000E+01   1.000000E+01   1.000000E+01   1.000000E+01   1.000000E+01   1.000000E+01   1.000000E+01   1.000000E+01   1.000000E+01   1.000000E+01   1.000000E+01   1.000000E+01   1.000000E+01   1.000000E+01   1.000000E+01   1.000000E+01
   1.000000E+01   1.000000E+01   1.000000E+01   1.000000E+01   1.000000E+01   1.000000E+01   1.000000E+01   1.000000E+01   1.000000E+01   1.000000E+01   1.000000E+01   1.000000E+01   1.000000E+01   1.000000E+01   1.000000E+01   1.000000E+01   1.000000E+01   1.000000E+01   1.000000E+01   1.000000E+01   1.000000E+01   1.000000E+01   1.000000E+01   1.000000E+01   1.000000E+01   1.000000E+01   1.000000E+01   1.000000E+01   1.000000E+01   1.000000E+01   1.000000E+01   1.000000E+01   1.000000E+01   1.000000E+01   1.000000E+01   1.000000E+01   1.000000E+01   1.000000E+01   1.000000E+01   1.000000E+01   1.000000E+01   1.000000E+01   1.000000E+01   1.000000E+01   1.000000E+01   1.000000E+01   1.000000E+01   1.000000E+01   1.000000E+01   1.000000E+01   1.000000E+01   1.000000E+01   1.000000E+01   1.000000E+01   1.000000E+01   1.000000E+01   1.000000E+01   1.000000E+01   1.000000E+01   1.000000E+01   1.000000E+01   1.000000E+01   1.000000E+01   1.000000E+01   1.000000E+01   1.000000E+01   1.000000E+01   1.000000E+01   1.000000E+01   1.000000E+01   1.000000E+01   1.000000E+01   1.000000E+01   1.000000E+01   1.000000E+01   1.000000E+01   1.000000E+01   1.000000E+01   1.000000E+01   1.000000E+01   1.000000E+01   1.000000E+01   1.000000E+01   1.000000E+01   1.000000E+01   1.000000E+01   1.000000E+01   1.000000E+01   1.000000E+01   1.000000E+01   1.000000E+01   1.000000E+01   1.000000E+01   1.000000E+01   1.000000E+01   1.000000E+01   1.000000E+01   1.000000E+01   1.000000E+01   1.000000E+01   1.000000E+01   1.000000E+01   1.000000E+01   1.000000E+01   1.000000E+01   1.000000E+01   1.000000E+01   1.000000E+01   1.000000E+01   1.000000E+01   1.000000E+01   1.000000E+01   1.000000E+01   1.000000E+01   1.000000E+01   1.000000E+01   1.000000E+01   1.000000E+01   1.000000E+01   1.000000E+01   1.000000E+01   1.000000E+01   1.000000E+01   1.000000E+01   1.000000E+01   1.000000E+01   1.000000E+01   1.000000E+01   1.000000E+01   1.000000E+01   1.000000E+01   1.000000E+01   1.000000E+01   1.000000E+01   1.000000E+01   1.000000E+01   1.000000E+01   1.000000E+01   1.000000E+01   1.000000E+01   1.000000E+01   1.000000E+01   1.000000E+01   1.000000E+01   1.000000E+01   1.000000E+01   1.000000E+01   1.000000E+01   1.000000E+01   1.000000E+01
   1.000000E+01   1.000000E+01   1.000000E+01   1.000000E+01   1.000000E+01   1.000000E+01   1.000000E+01   1.000000E+01   1.000000E+01   1.000000E+01   1.000000E+01   1.000000E+01   1.000000E+01   1.000000E+01   1.000000E+01   1.000000E+01   1.000000E+01   1.000000E+01   1.000000E+01   1.000000E+01   1.000000E+01   1.000000E+01   1.000000E+01   1.000000E+01   1.000000E+01   1.000000E+01   1.000000E+01   1.000000E+01   1.000000E+01   1.000000E+01   1.000000E+01   1.000000E+01   1.000000E+01   1.000000E+01   1.000000E+01   1.000000E+01   1.000000E+01   1.000000E+01   1.000000E+01   1.000000E+01   1.000000E+01   1.000000E+01   1.000000E+01   1.000000E+01   1.000000E+01   1.000000E+01   1.000000E+01   1.000000E+01   1.000000E+01   1.000000E+01   1.000000E+01   1.000000E+01   1.000000E+01   1.000000E+01   1.000000E+01   1.000000E+01   1.000000E+01   1.000000E+01   1.000000E+01   1.000000E+01   1.000000E+01   1.000000E+01   1.000000E+01   1.000000E+01   1.000000E+01   1.000000E+01   1.000000E+01   1.000000E+01   1.000000E+01   1.000000E+01   1.000000E+01   1.000000E+01   1.000000E+01   1.000000E+01   1.000000E+01   1.000000E+01   1.000000E+01   1.000000E+01   1.000000E+01   1.000000E+01   1.000000E+01   1.000000E+01   1.000000E+01   1.000000E+01   1.000000E+01   1.000000E+01   1.000000E+01   1.000000E+01   1.000000E+01   1.000000E+01   1.000000E+01   1.000000E+01   1.000000E+01   1.000000E+01   1.000000E+01   1.000000E+01   1.000000E+01   1.000000E+01   1.000000E+01   1.000000E+01   1.000000E+01   1.000000E+01   1.000000E+01   1.000000E+01   1.000000E+01   1.000000E+01   1.000000E+01   1.000000E+01   1.000000E+01   1.000000E+01   1.000000E+01   1.000000E+01   1.000000E+01   1.000000E+01   1.000000E+01   1.000000E+01   1.000000E+01   1.000000E+01   1.000000E+01   1.000000E+01   1.000000E+01   1.000000E+01   1.000000E+01   1.000000E+01   1.000000E+01   1.000000E+01   1.000000E+01   1.000000E+01   1.000000E+01   1.000000E+01   1.000000E+01   1.000000E+01   1.000000E+01   1.000000E+01   1.000000E+01   1.000000E+01   1.000000E+01   1.000000E+01   1.000000E+01   1.000000E+01   1.000000E+01   1.000000E+01   1.000000E+01   1.000000E+01   1.000000E+01   1.000000E+01   1.000000E+01   1.000000E+01   1.000000E+01   1.000000E+01
   1.000000E+01   1.000000E+01   1.000000E+01   1.000000E+01   1.000000E+01   1.000000E+01   1.000000E+01   1.000000E+01   1.000000E+01   1.000000E+01   1.000000E+01   1.000000E+01   1.000000E+01   1.000000E+01   1.000000E+01   1.000000E+01   1.000000E+01   1.000000E+01   1.000000E+01   1.000000E+01   1.000000E+01   1.000000E+01   1.000000E+01   1.000000E+01   1.000000E+01   1.000000E+01   1.000000E+01   1.000000E+01   1.000000E+01   1.000000E+01   1.000000E+01   1.000000E+01   1.000000E+01   1.000000E+01   1.000000E+01   1.000000E+01   1.000000E+01   1.000000E+01   1.000000E+01   1.000000E+01   1.000000E+01   1.000000E+01   1.000000E+01   1.000000E+01   1.000000E+01   1.000000E+01   1.000000E+01   1.000000E+01   1.000000E+01   1.000000E+01   1.000000E+01   1.000000E+01   1.000000E+01   1.000000E+01   1.000000E+01   1.000000E+01   1.000000E+01   1.000000E+01   1.000000E+01   1.000000E+01   1.000000E+01   1.000000E+01   1.000000E+01   1.000000E+01   1.000000E+01   1.000000E+01   1.000000E+01   1.000000E+01   1.000000E+01   1.000000E+01   1.000000E+01   1.000000E+01   1.000000E+01   1.000000E+01   1.000000E+01   1.000000E+01   1.000000E+01   1.000000E+01   1.000000E+01   1.000000E+01   1.000000E+01   1.000000E+01   1.000000E+01   1.000000E+01   1.000000E+01   1.000000E+01   1.000000E+01   1.000000E+01   1.000000E+01   1.000000E+01   1.000000E+01   1.000000E+01   1.000000E+01   1.000000E+01   1.000000E+01   1.000000E+01   1.000000E+01   1.000000E+01   1.000000E+01   1.000000E+01   1.000000E+01   1.000000E+01   1.000000E+01   1.000000E+01   1.000000E+01   1.000000E+01   1.000000E+01   1.000000E+01   1.000000E+01   1.000000E+01   1.000000E+01   1.000000E+01   1.000000E+01   1.000000E+01   1.000000E+01   1.000000E+01   1.000000E+01   1.000000E+01   1.000000E+01   1.000000E+01   1.000000E+01   1.000000E+01   1.000000E+01   1.000000E+01   1.000000E+01   1.000000E+01   1.000000E+01   1.000000E+01   1.000000E+01   1.000000E+01   1.000000E+01   1.000000E+01   1.000000E+01   1.000000E+01   1.000000E+01   1.000000E+01   1.000000E+01   1.000000E+01   1.000000E+01   1.000000E+01   1.000000E+01   1.000000E+01   1.000000E+01   1.000000E+01   1.000000E+01   1.000000E+01   1.000000E+01   1.000000E+01   1.000000E+01   1.000000E+01
   1.000000E+01   1.000000E+01   1.000000E+01   1.000000E+01   1.000000E+01   1.000000E+01   1.000000E+01   1.000000E+01   1.000000E+01   1.000000E+01   1.000000E+01   1.000000E+01   1.000000E+01   1.000000E+01   1.000000E+01   1.000000E+01   1.000000E+01   1.000000E+01   1.000000E+01   1.000000E+01   1.000000E+01   1.000000E+01   1.000000E+01   1.000000E+01   1.000000E+01   1.000000E+01   1.000000E+01   1.000000E+01   1.000000E+01   1.000000E+01   1.000000E+01   1.000000E+01   1.000000E+01   1.000000E+01   1.000000E+01   1.000000E+01   1.000000E+01   1.000000E+01   1.000000E+01   1.000000E+01   1.000000E+01   1.000000E+01   1.000000E+01   1.000000E+01   1.000000E+01   1.000000E+01   1.000000E+01   1.000000E+01   1.000000E+01   1.000000E+01   1.000000E+01   1.000000E+01   1.000000E+01   1.000000E+01   1.000000E+01   1.000000E+01   1.000000E+01   1.000000E+01   1.000000E+01   1.000000E+01   1.000000E+01   1.000000E+01   1.000000E+01   1.000000E+01   1.000000E+01   1.000000E+01   1.000000E+01   1.000000E+01   1.000000E+01   1.000000E+01   1.000000E+01   1.000000E+01   1.000000E+01   1.000000E+01   1.000000E+01   1.000000E+01   1.000000E+01   1.000000E+01   1.000000E+01   1.000000E+01   1.000000E+01   1.000000E+01   1.000000E+01   1.000000E+01   1.000000E+01   1.000000E+01   1.000000E+01   1.000000E+01   1.000000E+01   1.000000E+01   1.000000E+01   1.000000E+01   1.000000E+01   1.000000E+01   1.000000E+01   1.000000E+01   1.000000E+01   1.000000E+01   1.000000E+01   1.000000E+01   1.000000E+01   1.000000E+01   1.000000E+01   1.000000E+01   1.000000E+01   1.000000E+01   1.000000E+01   1.000000E+01   1.000000E+01   1.000000E+01   1.000000E+01   1.000000E+01   1.000000E+01   1.000000E+01   1.000000E+01   1.000000E+01   1.000000E+01   1.000000E+01   1.000000E+01   1.000000E+01   1.000000E+01   1.000000E+01   1.000000E+01   1.000000E+01   1.000000E+01   1.000000E+01   1.000000E+01   1.000000E+01   1.000000E+01   1.000000E+01   1.000000E+01   1.000000E+01   1.000000E+01   1.000000E+01   1.000000E+01   1.000000E+01   1.000000E+01   1.000000E+01   1.000000E+01   1.000000E+01   1.000000E+01   1.000000E+01   1.000000E+01   1.000000E+01   1.000000E+01   1.000000E+01   1.000000E+01   1.000000E+01   1.000000E+01   1.000000E+01
   1.000000E+01   1.000000E+01   1.000000E+01   1.000000E+01   1.000000E+01   1.000000E+01   1.000000E+01   1.000000E+01   1.000000E+01   1.000000E+01   1.000000E+01   1.000000E+01   1.000000E+01   1.000000E+01   1.000000E+01   1.000000E+01   1.000000E+01   1.000000E+01   1.000000E+01   1.000000E+01   1.000000E+01   1.000000E+01   1.000000E+01   1.000000E+01   1.000000E+01   1.000000E+01   1.000000E+01   1.000000E+01   1.000000E+01   1.000000E+01   1.000000E+01   1.000000E+01   1.000000E+01   1.000000E+01   1.000000E+01   1.000000E+01   1.000000E+01   1.000000E+01   1.000000E+01   1.000000E+01   1.000000E+01   1.000000E+01   1.000000E+01   1.000000E+01   1.000000E+01   1.000000E+01   1.000000E+01   1.000000E+01   1.000000E+01   1.000000E+01   1.000000E+01   1.000000E+01   1.000000E+01   1.000000E+01   1.000000E+01   1.000000E+01   1.000000E+01   1.000000E+01   1.000000E+01   1.000000E+01   1.000000E+01   1.000000E+01   1.000000E+01   1.000000E+01   1.000000E+01   1.000000E+01   1.000000E+01   1.000000E+01   1.000000E+01   1.000000E+01   1.000000E+01   1.000000E+01   1.000000E+01   1.000000E+01   1.000000E+01   1.000000E+01   1.000000E+01   1.000000E+01   1.000000E+01   1.000000E+01   1.000000E+01   1.000000E+01   1.000000E+01   1.000000E+01   1.000000E+01   1.000000E+01   1.000000E+01   1.000000E+01   1.000000E+01   1.000000E+01   1.000000E+01   1.000000E+01   1.000000E+01   1.000000E+01   1.000000E+01   1.000000E+01   1.000000E+01   1.000000E+01   1.000000E+01   1.000000E+01   1.000000E+01   1.000000E+01   1.000000E+01   1.000000E+01   1.000000E+01   1.000000E+01   1.000000E+01   1.000000E+01   1.000000E+01   1.000000E+01   1.000000E+01   1.000000E+01   1.000000E+01   1.000000E+01   1.000000E+01   1.000000E+01   1.000000E+01   1.000000E+01   1.000000E+01   1.000000E+01   1.000000E+01   1.000000E+01   1.000000E+01   1.000000E+01   1.000000E+01   1.000000E+01   1.000000E+01   1.000000E+01   1.000000E+01   1.000000E+01   1.000000E+01   1.000000E+01   1.000000E+01   1.000000E+01   1.000000E+01   1.000000E+01   1.000000E+01   1.000000E+01   1.000000E+01   1.000000E+01   1.000000E+01   1.000000E+01   1.000000E+01   1.000000E+01   1.000000E+01   1.000000E+01   1.000000E+01   1.000000E+01   1.000000E+01   1.000000E+01
   1.000000E+01   1.000000E+01   1.000000E+01   1.000000E+01   1.000000E+01   1.000000E+01   1.000000E+01   1.000000E+01   1.000000E+01   1.000000E+01   1.000000E+01   1.000000E+01   1.000000E+01   1.000000E+01   1.000000E+01   1.000000E+01   1.000000E+01   1.000000E+01   1.000000E+01   1.000000E+01   1.000000E+01   1.000000E+01   1.000000E+01   1.000000E+01   1.000000E+01   1.000000E+01   1.000000E+01   1.000000E+01   1.000000E+01   1.000000E+01   1.000000E+01   1.000000E+01   1.000000E+01   1.000000E+01   1.000000E+01   1.000000E+01   1.000000E+01   1.000000E+01   1.000000E+01   1.000000E+01   1.000000E+01   1.000000E+01   1.000000E+01   1.000000E+01   1.000000E+01   1.000000E+01   1.000000E+01   1.000000E+01   1.000000E+01   1.000000E+01   1.000000E+01   1.000000E+01   1.000000E+01   1.000000E+01   1.000000E+01   1.000000E+01   1.000000E+01   1.000000E+01   1.000000E+01   1.000000E+01   1.000000E+01   1.000000E+01   1.000000E+01   1.000000E+01   1.000000E+01   1.000000E+01   1.000000E+01   1.000000E+01   1.000000E+01   1.000000E+01   1.000000E+01   1.000000E+01   1.000000E+01   1.000000E+01   1.000000E+01   1.000000E+01   1.000000E+01   1.000000E+01   1.000000E+01   1.000000E+01   1.000000E+01   1.000000E+01   1.000000E+01   1.000000E+01   1.000000E+01   1.000000E+01   1.000000E+01   1.000000E+01   1.000000E+01   1.000000E+01   1.000000E+01   1.000000E+01   1.000000E+01   1.000000E+01   1.000000E+01   1.000000E+01   1.000000E+01   1.000000E+01   1.000000E+01   1.000000E+01   1.000000E+01   1.000000E+01   1.000000E+01   1.000000E+01   1.000000E+01   1.000000E+01   1.000000E+01   1.000000E+01   1.000000E+01   1.000000E+01   1.000000E+01   1.000000E+01   1.000000E+01   1.000000E+01   1.000000E+01   1.000000E+01   1.000000E+01   1.000000E+01   1.000000E+01   1.000000E+01   1.000000E+01   1.000000E+01   1.000000E+01   1.000000E+01   1.000000E+01   1.000000E+01   1.000000E+01   1.000000E+01   1.000000E+01   1.000000E+01   1.000000E+01   1.000000E+01   1.000000E+01   1.000000E+01   1.000000E+01   1.000000E+01   1.000000E+01   1.000000E+01   1.000000E+01   1.000000E+01   1.000000E+01   1.000000E+01   1.000000E+01   1.000000E+01   1.000000E+01   1.000000E+01   1.000000E+01   1.000000E+01   1.000000E+01   1.000000E+01
   1.000000E+01   1.000000E+01   1.000000E+01   1.000000E+01   1.000000E+01   1.000000E+01   1.000000E+01   1.000000E+01   1.000000E+01   1.000000E+01   1.000000E+01   1.000000E+01   1.000000E+01   1.000000E+01   1.000000E+01   1.000000E+01   1.000000E+01   1.000000E+01   1.000000E+01   1.000000E+01   1.000000E+01   1.000000E+01   1.000000E+01   1.000000E+01   1.000000E+01   1.000000E+01   1.000000E+01   1.000000E+01   1.000000E+01   1.000000E+01   1.000000E+01   1.000000E+01   1.000000E+01   1.000000E+01   1.000000E+01   1.000000E+01   1.000000E+01   1.000000E+01   1.000000E+01   1.000000E+01   1.000000E+01   1.000000E+01   1.000000E+01   1.000000E+01   1.000000E+01   1.000000E+01   1.000000E+01   1.000000E+01   1.000000E+01   1.000000E+01   1.000000E+01   1.000000E+01   1.000000E+01   1.000000E+01   1.000000E+01   1.000000E+01   1.000000E+01   1.000000E+01   1.000000E+01   1.000000E+01   1.000000E+01   1.000000E+01   1.000000E+01   1.000000E+01   1.000000E+01   1.000000E+01   1.000000E+01   1.000000E+01   1.000000E+01   1.000000E+01   1.000000E+01   1.000000E+01   1.000000E+01   1.000000E+01   1.000000E+01   1.000000E+01   1.000000E+01   1.000000E+01   1.000000E+01   1.000000E+01   1.000000E+01   1.000000E+01   1.000000E+01   1.000000E+01   1.000000E+01   1.000000E+01   1.000000E+01   1.000000E+01   1.000000E+01   1.000000E+01   1.000000E+01   1.000000E+01   1.000000E+01   1.000000E+01   1.000000E+01   1.000000E+01   1.000000E+01   1.000000E+01   1.000000E+01   1.000000E+01   1.000000E+01   1.000000E+01   1.000000E+01   1.000000E+01   1.000000E+01   1.000000E+01   1.000000E+01   1.000000E+01   1.000000E+01   1.000000E+01   1.000000E+01   1.000000E+01   1.000000E+01   1.000000E+01   1.000000E+01   1.000000E+01   1.000000E+01   1.000000E+01   1.000000E+01   1.000000E+01   1.000000E+01   1.000000E+01   1.000000E+01   1.000000E+01   1.000000E+01   1.000000E+01   1.000000E+01   1.000000E+01   1.000000E+01   1.000000E+01   1.000000E+01   1.000000E+01   1.000000E+01   1.000000E+01   1.000000E+01   1.000000E+01   1.000000E+01   1.000000E+01   1.000000E+01   1.000000E+01   1.000000E+01   1.000000E+01   1.000000E+01   1.000000E+01   1.000000E+01   1.000000E+01   1.000000E+01   1.000000E+01   1.000000E+01   1.000000E+01