# DIS package for MODFLOW-2005 generated by Flopy 3.9.2
         1        50       150       101         4         2
  0
CONSTANT    2.000000E+00                           #delr                          
CONSTANT    2.000000E+00                           #delc                          
CONSTANT    1.000000E+01                           #model_top                     
CONSTANT    0.000000E+00                           #botm layer 1                  
      0.000000             2  1.000000  SS
      3.000000             2  1.000000  TR
      3.000000             2  1.000000  TR
      3.000000             2  1.000000  TR
      3.000000             2  1.000000  TR
      3.000000             2  1.000000  TR
      3.000000             2  1.000000  TR
      3.000000             2  1.000000  TR
      3.000000             2  1.000000  TR
      3.000000             2  1.000000  TR
      3.000000             2  1.000000  TR
      3.000000             2  1.000000  TR
      3.000000             2  1.000000  TR
      3.000000             2  1.000000  TR
      3.000000             2  1.000000  TR
      3.000000             2  1.000000  TR
      3.000000             2  1.000000  TR
      3.000000             2  1.000000  TR
      3.000000             2  1.000000  TR
      3.000000             2  1.000000  TR
      3.000000             2  1.000000  TR
      3.000000             2  1.000000  TR
      3.000000             2  1.000000  TR
      3.000000             2  1.000000  TR
      3.000000             2  1.000000  TR
      3.000000             2  1.000000  TR
      3.000000             2  1.000000  TR
      3.000000             2  1.000000  TR
      3.000000             2  1.000000  TR
      3.000000             2  1.000000  TR
      3.000000             2  1.000000  TR
      3.000000             2  1.000000  TR
      3.000000             2  1.000000  TR
      3.000000             2  1.000000  TR
      3.000000             2  1.000000  TR
      3.000000             2  1.000000  TR
      3.000000             2  1.000000  TR
      3.000000             2  1.000000  TR
      3.000000             2  1.000000  TR
      3.000000             2  1.000000  TR
      3.000000             2  1.000000  TR
      3.000000             2  1.000000  TR
      3.000000             2  1.000000  TR
      3.000000             2  1.000000  TR
      3.000000             2  1.000000  TR
      3.000000             2  1.000000  TR
      3.000000             2  1.000000  TR
      3.000000             2  1.000000  TR
      3.000000             2  1.000000  TR
      3.000000             2  1.000000  TR
      3.000000             2  1.000000  TR
      3.000000             2  1.000000  TR
      3.000000             2  1.000000  TR
      3.000000             2  1.000000  TR
      3.000000             2  1.000000  TR
      3.000000             2  1.000000  TR
      3.000000             2  1.000000  TR
      3.000000             2  1.000000  TR
      3.000000             2  1.000000  TR
      3.000000             2  1.000000  TR
      3.000000             2  1.000000  TR
      3.000000             2  1.000000  TR
      3.000000             2  1.000000  TR
      3.000000             2  1.000000  TR
      3.000000             2  1.000000  TR
      3.000000             2  1.000000  TR
      3.000000             2  1.000000  TR
      3.000000             2  1.000000  TR
      3.000000             2  1.000000  TR
      3.000000             2  1.000000  TR
      3.000000             2  1.000000  TR
      3.000000             2  1.000000  TR
      3.000000             2  1.000000  TR
      3.000000             2  1.000000  TR
      3.000000             2  1.000000  TR
      3.000000             2  1.000000  TR
      3.000000             2  1.000000  TR
      3.000000             2  1.000000  TR
      3.000000             2  1.000000  TR
      3.000000             2  1.000000  TR
      3.000000             2  1.000000  TR
      3.000000             2  1.000000  TR
      3.000000             2  1.000000  TR
      3.000000             2  1.000000  TR
      3.000000             2  1.000000  TR
      3.000000             2  1.000000  TR
      3.000000             2  1.000000  TR
      3.000000             2  1.000000  TR
      3.000000             2  1.000000  TR
      3.000000             2  1.000000  TR
      3.000000             2  1.000000  TR
      3.000000             2  1.000000  TR
      3.000000             2  1.000000  TR
      3.000000             2  1.000000  TR
      3.000000             2  1.000000  TR
      3.000000             2  1.000000  TR
      3.000000             2  1.000000  TR
      3.000000             2  1.000000  TR
      3.000000             2  1.000000  TR
      3.000000             2  1.000000  TR
      3.000000             2  1.000000  TR
