# Name file for MT3D-USGS, generated by Flopy version 3.9.2.
LIST              16  ReleaseHistory_trans.list
FTL               10  mt3d_link.ftl 
BTN               31  ReleaseHistory_trans.btn
ADV               32  ReleaseHistory_trans.adv
GCG               35  ReleaseHistory_trans.gcg
DSP               33  ReleaseHistory_trans.dsp
SSM               34  ReleaseHistory_trans.ssm
