# Name file for MODFLOW-2005, generated by Flopy version 3.9.2.
#xll:0.0; yll:0.0; rotation:0.0; units:meters; lenuni:2; start_datetime:1-1-1970
LIST               2  ReleaseHistory_flow.list
DIS               11  ReleaseHistory_flow.dis
LPF               15  ReleaseHistory_flow.lpf
BAS6              13  ReleaseHistory_flow.bas
CHD               24  ReleaseHistory_flow.chd
WEL               20  ReleaseHistory_flow.wel
LMT6              30  ReleaseHistory_flow.lmt6
PCG               27  ReleaseHistory_flow.pcg
OC                14  ReleaseHistory_flow.oc
DATA(BINARY)      51  ReleaseHistory_flow.hds REPLACE
