# Name file for MT3D-USGS, generated by Flopy version 3.2.12.
LIST              16  Ayvaz_trans.list
FTL               10  mt3d_link.ftl 
BTN               31  Ayvaz_trans.btn 
ADV               32  Ayvaz_trans.adv 
GCG               35  Ayvaz_trans.gcg 
DSP               33  Ayvaz_trans.dsp 
SSM               34  Ayvaz_trans.ssm 
