# LPF package for  MODFLOW-2005, generated by Flopy.
         0      -888         0  
         0
         0
  -1.000000E+00
         1
         0
INTERNAL               1  (25E15.6) -1 #hk layer 1                    
   0.000000E+00   0.000000E+00   0.000000E+00   3.456000E+01   3.456000E+01   3.456000E+01   3.456000E+01   3.456000E+01   0.000000E+00   0.000000E+00   0.000000E+00   0.000000E+00   0.000000E+00   0.000000E+00   0.000000E+00   0.000000E+00   0.000000E+00   0.000000E+00   0.000000E+00   0.000000E+00   0.000000E+00   0.000000E+00   0.000000E+00   0.000000E+00   0.000000E+00
   0.000000E+00   0.000000E+00   3.456000E+01   3.456000E+01   3.456000E+01   3.456000E+01   3.456000E+01   3.456000E+01   3.456000E+01   3.456000E+01   0.000000E+00   0.000000E+00   0.000000E+00   0.000000E+00   0.000000E+00   0.000000E+00   0.000000E+00   0.000000E+00   0.000000E+00   0.000000E+00   0.000000E+00   0.000000E+00   0.000000E+00   0.000000E+00   0.000000E+00
   0.000000E+00   0.000000E+00   3.456000E+01   3.456000E+01   3.456000E+01   3.456000E+01   3.456000E+01   3.456000E+01   3.456000E+01   1.728000E+01   1.728000E+01   1.728000E+01   1.728000E+01   1.728000E+01   1.728000E+01   0.000000E+00   0.000000E+00   0.000000E+00   0.000000E+00   0.000000E+00   0.000000E+00   0.000000E+00   0.000000E+00   0.000000E+00   0.000000E+00
   0.000000E+00   3.456000E+01   3.456000E+01   3.456000E+01   3.456000E+01   3.456000E+01   3.456000E+01   3.456000E+01   1.728000E+01   1.728000E+01   1.728000E+01   1.728000E+01   1.728000E+01   1.728000E+01   1.728000E+01   1.728000E+01   0.000000E+00   0.000000E+00   0.000000E+00   0.000000E+00   0.000000E+00   0.000000E+00   0.000000E+00   0.000000E+00   0.000000E+00
   3.456000E+01   3.456000E+01   3.456000E+01   3.456000E+01   3.456000E+01   3.456000E+01   3.456000E+01   1.728000E+01   1.728000E+01   1.728000E+01   1.728000E+01   1.728000E+01   1.728000E+01   1.728000E+01   1.728000E+01   1.728000E+01   1.728000E+01   1.728000E+01   1.728000E+01   1.728000E+01   1.728000E+01   0.000000E+00   0.000000E+00   0.000000E+00   0.000000E+00
   0.000000E+00   3.456000E+01   3.456000E+01   3.456000E+01   3.456000E+01   3.456000E+01   8.640000E+00   1.728000E+01   1.728000E+01   1.728000E+01   1.728000E+01   1.728000E+01   1.728000E+01   1.728000E+01   1.728000E+01   1.728000E+01   1.728000E+01   1.728000E+01   1.728000E+01   1.728000E+01   1.728000E+01   1.728000E+01   1.728000E+01   0.000000E+00   0.000000E+00
   0.000000E+00   3.456000E+01   3.456000E+01   3.456000E+01   3.456000E+01   8.640000E+00   8.640000E+00   8.640000E+00   8.640000E+00   8.640000E+00   1.728000E+01   1.728000E+01   1.728000E+01   1.728000E+01   1.728000E+01   1.728000E+01   1.728000E+01   1.728000E+01   1.728000E+01   1.728000E+01   1.728000E+01   1.728000E+01   1.728000E+01   6.048000E+01   0.000000E+00
   0.000000E+00   0.000000E+00   3.456000E+01   3.456000E+01   8.640000E+00   8.640000E+00   8.640000E+00   8.640000E+00   8.640000E+00   8.640000E+00   8.640000E+00   8.640000E+00   2.592000E+01   2.592000E+01   1.728000E+01   1.728000E+01   1.728000E+01   1.728000E+01   1.728000E+01   1.728000E+01   1.728000E+01   6.048000E+01   6.048000E+01   6.048000E+01   6.048000E+01
   0.000000E+00   0.000000E+00   0.000000E+00   8.640000E+00   8.640000E+00   8.640000E+00   8.640000E+00   8.640000E+00   8.640000E+00   8.640000E+00   8.640000E+00   2.592000E+01   2.592000E+01   2.592000E+01   2.592000E+01   2.592000E+01   1.728000E+01   1.728000E+01   1.728000E+01   6.048000E+01   6.048000E+01   6.048000E+01   6.048000E+01   6.048000E+01   6.048000E+01
   0.000000E+00   0.000000E+00   0.000000E+00   0.000000E+00   8.640000E+00   8.640000E+00   8.640000E+00   8.640000E+00   8.640000E+00   8.640000E+00   2.592000E+01   2.592000E+01   2.592000E+01   2.592000E+01   2.592000E+01   2.592000E+01   2.592000E+01   6.048000E+01   6.048000E+01   6.048000E+01   6.048000E+01   6.048000E+01   6.048000E+01   6.048000E+01   6.048000E+01
   0.000000E+00   0.000000E+00   0.000000E+00   0.000000E+00   0.000000E+00   0.000000E+00   0.000000E+00   0.000000E+00   0.000000E+00   0.000000E+00   0.000000E+00   0.000000E+00   2.592000E+01   2.592000E+01   2.592000E+01   2.592000E+01   2.592000E+01   2.592000E+01   6.048000E+01   6.048000E+01   6.048000E+01   6.048000E+01   6.048000E+01   6.048000E+01   6.048000E+01
   0.000000E+00   0.000000E+00   0.000000E+00   0.000000E+00   0.000000E+00   0.000000E+00   0.000000E+00   0.000000E+00   0.000000E+00   0.000000E+00   0.000000E+00   0.000000E+00   0.000000E+00   2.592000E+01   2.592000E+01   2.592000E+01   2.592000E+01   2.592000E+01   2.592000E+01   6.048000E+01   6.048000E+01   6.048000E+01   6.048000E+01   6.048000E+01   0.000000E+00
   0.000000E+00   0.000000E+00   0.000000E+00   0.000000E+00   0.000000E+00   0.000000E+00   0.000000E+00   0.000000E+00   0.000000E+00   0.000000E+00   0.000000E+00   0.000000E+00   0.000000E+00   0.000000E+00   0.000000E+00   0.000000E+00   2.592000E+01   2.592000E+01   2.592000E+01   6.048000E+01   6.048000E+01   6.048000E+01   6.048000E+01   0.000000E+00   0.000000E+00
   0.000000E+00   0.000000E+00   0.000000E+00   0.000000E+00   0.000000E+00   0.000000E+00   0.000000E+00   0.000000E+00   0.000000E+00   0.000000E+00   0.000000E+00   0.000000E+00   0.000000E+00   0.000000E+00   0.000000E+00   0.000000E+00   0.000000E+00   2.592000E+01   2.592000E+01   2.592000E+01   6.048000E+01   6.048000E+01   0.000000E+00   0.000000E+00   0.000000E+00
   0.000000E+00   0.000000E+00   0.000000E+00   0.000000E+00   0.000000E+00   0.000000E+00   0.000000E+00   0.000000E+00   0.000000E+00   0.000000E+00   0.000000E+00   0.000000E+00   0.000000E+00   0.000000E+00   0.000000E+00   0.000000E+00   0.000000E+00   0.000000E+00   0.000000E+00   2.592000E+01   6.048000E+01   0.000000E+00   0.000000E+00   0.000000E+00   0.000000E+00
CONSTANT    1.000000E+00                           #hani layer 1                  
CONSTANT    1.000000E+00                           #vani1                         
CONSTANT    1.000000E-05                           #ss layer 1                    
