# OC package for  MODFLOW-2005, generated by Flopy.
HEAD PRINT FORMAT   0
HEAD SAVE UNIT    51
DRAWDOWN PRINT FORMAT   0
COMPACT BUDGET AUX

period 1 step 1 
  save head

period 1 step 2 
  save head

period 2 step 1 
  save head

period 2 step 2 
  save head

period 3 step 1 
  save head

period 3 step 2 
  save head

period 4 step 1 
  save head

period 4 step 2 
  save head

period 5 step 1 
  save head

period 5 step 2 
  save head

period 6 step 1 
  save head

period 6 step 2 
  save head

period 7 step 1 
  save head

period 7 step 2 
  save head

period 8 step 1 
  save head

period 8 step 2 
  save head

period 9 step 1 
  save head

period 9 step 2 
  save head

period 10 step 1 
  save head

period 10 step 2 
  save head

