# DIS package for  MODFLOW-2005, generated by Flopy.
         1        15        25        10         4         2
  0
CONSTANT    1.000000E+02                           #delr                          
CONSTANT    1.000000E+02                           #delc                          
CONSTANT    3.000000E+01                           #model_top                     
CONSTANT    0.000000E+00                           #botm layer 1                  
    180.000000             2  1.000000  TR 
    180.000000             2  1.000000  TR 
    180.000000             2  1.000000  TR 
    180.000000             2  1.000000  TR 
    180.000000             2  1.000000  TR 
    180.000000             2  1.000000  TR 
    180.000000             2  1.000000  TR 
    180.000000             2  1.000000  TR 
    180.000000             2  1.000000  TR 
    180.000000             2  1.000000  TR 
