## BTN for MT3DMS, generated by Flopy.
##
         1        15        25        10         1         1
D   M   KG  
T T T F T 
 0
         0       100                           -1 #delr
         0       100                           -1 #delc
         0        30                           -1 #htop
         0        30                           -1 #dz layer 1
         0       0.3                           -1 #prsity layer 1
        31         1            (25I10)        -1 #icbund layer 1
         0         0         0         1         1         1         1         1         0         0         0         0         0         0         0         0         0         0         0         0         0         0         0         0         0
         0         0         1         1         1         1         1         1         1         1         0         0         0         0         0         0         0         0         0         0         0         0         0         0         0
         0         0         1         1         1         1         1         1         1         1         1         1         1         1         1         0         0         0         0         0         0         0         0         0         0
         0         1         1         1         1         1         1         1         1         1         1         1         1         1         1         1         0         0         0         0         0         0         0         0         0
         1         1         1         1         1         1         1         1         1         1         1         1         1         1         1         1         1         1         1         1         1         0         0         0         0
         0         1         1         1         1         1         1         1         1         1         1         1         1         1         1         1         1         1         1         1         1         1         1         0         0
         0         1         1         1         1         1         1         1         1         1         1         1         1         1         1         1         1         1         1         1         1         1         1         1         0
         0         0         1         1         1         1         1         1         1         1         1         1         1         1         1         1         1         1         1         1         1         1         1         1         1
         0         0         0         1         1         1         1         1         1         1         1         1         1         1         1         1         1         1         1         1         1         1         1         1         1
         0         0         0         0         1         1         1         1         1         1         1         1         1         1         1         1         1         1         1         1         1         1         1         1         1
         0         0         0         0         0         0         0         0         0         0         0         0         1         1         1         1         1         1         1         1         1         1         1         1         1
         0         0         0         0         0         0         0         0         0         0         0         0         0         1         1         1         1         1         1         1         1         1         1         1         0
         0         0         0         0         0         0         0         0         0         0         0         0         0         0         0         0         1         1         1         1         1         1         1         0         0
         0         0         0         0         0         0         0         0         0         0         0         0         0         0         0         0         0         1         1         1         1         1         0         0         0
         0         0         0         0         0         0         0         0         0         0         0         0         0         0         0         0         0         0         0         1         1         0         0         0         0
         0         0                           -1 #sconc1 layer 1
     1E+30  1.00E-02
         0         0         0         0         T
        37
0.0000E+005.0000E+011.0000E+021.5000E+022.0000E+022.5000E+023.0000E+023.5000E+02
4.0000E+024.5000E+025.0000E+025.5000E+026.0000E+026.5000E+027.0000E+027.5000E+02
8.0000E+028.5000E+029.0000E+029.5000E+021.0000E+031.0500E+031.1000E+031.1500E+03
1.2000E+031.2500E+031.3000E+031.3500E+031.4000E+031.4500E+031.5000E+031.5500E+03
1.6000E+031.6500E+031.7000E+031.7500E+031.8000E+03
         0         1
         T         1
       180         2         1
         0      1000         1         0
       180         2         1
         0      1000         1         0
       180         2         1
         0      1000         1         0
       180         2         1
         0      1000         1         0
       180         2         1
         0      1000         1         0
       180         2         1
         0      1000         1         0
       180         2         1
         0      1000         1         0
       180         2         1
         0      1000         1         0
       180         2         1
         0      1000         1         0
       180         2         1
         0      1000         1         0
