# CHD package for  MODFLOW-2005, generated by Flopy.
        10
        10         0 # stress period 1
         1         1         4           100.0           100.0
         1         2         3           100.0           100.0
         1         3         3           100.0           100.0
         1         4         2           100.0           100.0
         1         5         1           100.0           100.0
         1        11        25            80.0            80.0
         1        12        24            80.0            80.0
         1        13        23            80.0            80.0
         1        14        22            80.0            80.0
         1        15        21            80.0            80.0
        -1         0 # stress period 2
        -1         0 # stress period 3
        -1         0 # stress period 4
        -1         0 # stress period 5
        -1         0 # stress period 6
        -1         0 # stress period 7
        -1         0 # stress period 8
        -1         0 # stress period 9
        -1         0 # stress period 10
